/*---------------------------------------------------------------------------*\
  =========                 |
  \\      /  F ield         | OpenFOAM: The Open Source CFD Toolbox
   \\    /   O peration     | Website:  https://openfoam.org
    \\  /    A nd           | Version:  6
     \\/     M anipulation  |
\*---------------------------------------------------------------------------*/
Build  : 6-fa1285188035
Exec   : reactingTwoPhaseEulerFoam
Date   : Jul 15 2021
Time   : 10:53:22
Host   : "edwardkgn-VirtualBox"
PID    : 32627
I/O    : uncollated
Case   : /home/edwardkgn/OpenFOAM/edwardkgn-6/run/subbranch_toy_multiPhase_shrinkingParticle/2_TEST_settlingBed2D_multPh_polyDisp_driftModel_noEffect_01
nProcs : 1
sigFpe : Enabling floating point exception trapping (FOAM_SIGFPE).
fileModificationChecking : Monitoring run-time modified files using timeStampMaster (fileModificationSkew 10)
allowSystemOperations : Allowing user-supplied system call operations

// * * * * * * * * * * * * * * * * * * * * * * * * * * * * * * * * * * * * * //
Create time

Create mesh for time = 0


PIMPLE: No convergence criteria found


PIMPLE: No corrector convergence criteria found
        Calclations will do 3 corrections


Reading g

Reading hRef
Creating phaseSystem

Selecting twoPhaseSystem populationBalanceTwoPhaseSystem
Selecting phaseModel for solid: pureIsothermalPhaseModel
Selecting diameterModel for phase solid: velocityGroup
Selecting thermodynamics package 
{
    type            heRhoThermo;
    mixture         pureMixture;
    transport       const;
    thermo          hConst;
    equationOfState rhoConst;
    specie          specie;
    energy          sensibleInternalEnergy;
}

Calculating face flux field phi.solid
Selecting turbulence model type RAS
Selecting RAS turbulence model kineticTheory
Selecting viscosityModel Gidaspow
Selecting conductivityModel Gidaspow
Selecting radialModel SinclairJackson
Selecting granularPressureModel Lun
Selecting frictionalStressModel JohnsonJacksonSchaeffer
kineticTheoryCoeffs
{
    equilibrium     off;
    e               0.8;
    alphaMax        0.07;
    alphaMinFriction 0.06;
    residualAlpha   0.0001;
    viscosityModel  Gidaspow;
    conductivityModel Gidaspow;
    granularPressureModel Lun;
    frictionalStressModel JohnsonJacksonSchaeffer;
    radialModel     SinclairJackson;
    JohnsonJacksonSchaefferCoeffs
    {
        Fr              0.05;
        eta             2;
        p               5;
        phi             28.5;
        alphaDeltaMin   0.05;
    }
}

Selecting phaseModel for water: pureIsothermalPhaseModel
Selecting diameterModel for phase water: constant
Selecting thermodynamics package 
{
    type            heRhoThermo;
    mixture         pureMixture;
    transport       const;
    thermo          hConst;
    equationOfState perfectFluid;
    specie          specie;
    energy          sensibleInternalEnergy;
}

Calculating face flux field phi.water
Selecting turbulence model type laminar
Selecting laminar stress model Stokes
No MRF models present

Selecting default blending method: none
Selecting surfaceTensionModel for (water and solid): constant
Selecting dragModel for (solid in water): GidaspowErgunWenYu
Selecting swarmCorrection for (solid in water): none
Selecting swarmCorrection for (solid in water): none
Selecting swarmCorrection for (solid in water): none
Selecting heatTransferModel for (solid in water): RanzMarshall
Calculating field g.h

Reading field p_rgh

Courant Number mean: 0 max: 0

Starting time loop

Courant Number mean: 0 max: 0
Max Ur Courant Number = 0
deltaT = 1.2e-05
Time = 1.2e-05

PIMPLE: Iteration 1
MULES: Solving for alpha.solid
MULES: Solving for alpha.solid
alpha.solid volume fraction = 0.017  Min(alpha1) = 0  Max(alpha1) = 0.034
Constructing momentum equations
GAMG:  Solving for p_rgh, Initial residual = 0.000829257, Final residual = 6.0084e-09, No Iterations 5
PIMPLE: Iteration 2
MULES: Solving for alpha.solid
MULES: Solving for alpha.solid
smoothSolver:  Solving for alpha.solid, Initial residual = 4.69576e-08, Final residual = 1.19527e-16, No Iterations 1
alpha.solid volume fraction = 0.017  Min(alpha1) = 0  Max(alpha1) = 0.034
Constructing momentum equations
GAMG:  Solving for p_rgh, Initial residual = 4.41475e-05, Final residual = 1.64636e-09, No Iterations 4
PIMPLE: Iteration 3
MULES: Solving for alpha.solid
MULES: Solving for alpha.solid
smoothSolver:  Solving for alpha.solid, Initial residual = 5.08948e-08, Final residual = 8.51439e-17, No Iterations 1
alpha.solid volume fraction = 0.017  Min(alpha1) = 0  Max(alpha1) = 0.034
populationBalance particles: Iteration 1
DILUPBiCGStab:  Solving for f0.solid.particles, Initial residual = 0, Final residual = 0, No Iterations 0
DILUPBiCGStab:  Solving for f1.solid.particles, Initial residual = 0, Final residual = 0, No Iterations 0
DILUPBiCGStab:  Solving for f2.solid.particles, Initial residual = 0, Final residual = 0, No Iterations 0
DILUPBiCGStab:  Solving for f3.solid.particles, Initial residual = 0, Final residual = 0, No Iterations 0
DILUPBiCGStab:  Solving for f4.solid.particles, Initial residual = 0, Final residual = 0, No Iterations 0
DILUPBiCGStab:  Solving for f5.solid.particles, Initial residual = 0.024083, Final residual = 5.73594e-18, No Iterations 1
DILUPBiCGStab:  Solving for f6.solid.particles, Initial residual = 1, Final residual = 1.06776e-16, No Iterations 1
solid Sauter mean diameter, min, max = 7.16e-05 7.16e-05 7.16e-05
solid sizeGroups-sum volume fraction, min, max = 1 1 1
particles sizeGroup phase fraction first, last = 0 0.017
Constructing momentum equations
GAMG:  Solving for p_rgh, Initial residual = 6.01756e-06, Final residual = 2.23976e-09, No Iterations 3
smoothSolver:  Solving for Theta.solid, Initial residual = 1, Final residual = 3.16006e-07, No Iterations 3
ExecutionTime = 0.26 s


Courant Number mean: 2.74979e-07 max: 2.82527e-07
Max Ur Courant Number = 5.46312e-06
deltaT = 1.43999e-05
Time = 2.63999e-05

PIMPLE: Iteration 1
MULES: Solving for alpha.solid
MULES: Solving for alpha.solid
smoothSolver:  Solving for alpha.solid, Initial residual = 6.16986e-08, Final residual = 9.46597e-17, No Iterations 1
alpha.solid volume fraction = 0.017  Min(alpha1) = 0  Max(alpha1) = 0.034
Constructing momentum equations
GAMG:  Solving for p_rgh, Initial residual = 0.00194028, Final residual = 7.96126e-09, No Iterations 6
PIMPLE: Iteration 2
MULES: Solving for alpha.solid
MULES: Solving for alpha.solid
smoothSolver:  Solving for alpha.solid, Initial residual = 1.81677e-08, Final residual = 8.61388e-17, No Iterations 1
alpha.solid volume fraction = 0.017  Min(alpha1) = 0  Max(alpha1) = 0.034
Constructing momentum equations
GAMG:  Solving for p_rgh, Initial residual = 8.96026e-06, Final residual = 2.17046e-09, No Iterations 4
PIMPLE: Iteration 3
MULES: Solving for alpha.solid
MULES: Solving for alpha.solid
smoothSolver:  Solving for alpha.solid, Initial residual = 1.8669e-08, Final residual = 6.56147e-17, No Iterations 1
alpha.solid volume fraction = 0.017  Min(alpha1) = -1.71558e-55  Max(alpha1) = 0.034
populationBalance particles: Iteration 1
DILUPBiCGStab:  Solving for f0.solid.particles, Initial residual = 0, Final residual = 0, No Iterations 0
DILUPBiCGStab:  Solving for f1.solid.particles, Initial residual = 0, Final residual = 0, No Iterations 0
DILUPBiCGStab:  Solving for f2.solid.particles, Initial residual = 0, Final residual = 0, No Iterations 0
DILUPBiCGStab:  Solving for f3.solid.particles, Initial residual = 0, Final residual = 0, No Iterations 0
DILUPBiCGStab:  Solving for f4.solid.particles, Initial residual = 1.48467e-24, Final residual = 1.48467e-24, No Iterations 0
DILUPBiCGStab:  Solving for f5.solid.particles, Initial residual = 0.0425512, Final residual = 2.12235e-18, No Iterations 1
DILUPBiCGStab:  Solving for f6.solid.particles, Initial residual = 0.311347, Final residual = 2.74741e-17, No Iterations 1
solid Sauter mean diameter, min, max = 7.16e-05 7.16e-05 7.16e-05
solid sizeGroups-sum volume fraction, min, max = 1 1 1
particles sizeGroup phase fraction first, last = 0 0.017
Constructing momentum equations
GAMG:  Solving for p_rgh, Initial residual = 8.86681e-07, Final residual = 5.09762e-09, No Iterations 2
smoothSolver:  Solving for Theta.solid, Initial residual = 0.0666528, Final residual = 4.38701e-10, No Iterations 1
ExecutionTime = 0.38 s


Courant Number mean: 7.15674e-07 max: 7.45865e-07
Max Ur Courant Number = 6.75558e-06
deltaT = 1.72799e-05
Time = 4.36798e-05

PIMPLE: Iteration 1
MULES: Solving for alpha.solid
MULES: Solving for alpha.solid
smoothSolver:  Solving for alpha.solid, Initial residual = 2.2458e-08, Final residual = 8.63578e-17, No Iterations 1
alpha.solid volume fraction = 0.017  Min(alpha1) = 0  Max(alpha1) = 0.034
Constructing momentum equations
GAMG:  Solving for p_rgh, Initial residual = 0.00295705, Final residual = 5.51971e-09, No Iterations 7
PIMPLE: Iteration 2
MULES: Solving for alpha.solid
MULES: Solving for alpha.solid
smoothSolver:  Solving for alpha.solid, Initial residual = 4.4219e-08, Final residual = 6.43888e-17, No Iterations 1
alpha.solid volume fraction = 0.017  Min(alpha1) = 0  Max(alpha1) = 0.034
Constructing momentum equations
GAMG:  Solving for p_rgh, Initial residual = 4.74096e-05, Final residual = 8.08986e-09, No Iterations 4
PIMPLE: Iteration 3
MULES: Solving for alpha.solid
MULES: Solving for alpha.solid
smoothSolver:  Solving for alpha.solid, Initial residual = 4.67682e-08, Final residual = 6.70494e-17, No Iterations 1
alpha.solid volume fraction = 0.017  Min(alpha1) = -8.51255e-57  Max(alpha1) = 0.034
populationBalance particles: Iteration 1
DILUPBiCGStab:  Solving for f0.solid.particles, Initial residual = 0, Final residual = 0, No Iterations 0
DILUPBiCGStab:  Solving for f1.solid.particles, Initial residual = 0, Final residual = 0, No Iterations 0
DILUPBiCGStab:  Solving for f2.solid.particles, Initial residual = 0, Final residual = 0, No Iterations 0
DILUPBiCGStab:  Solving for f3.solid.particles, Initial residual = 0, Final residual = 0, No Iterations 0
DILUPBiCGStab:  Solving for f4.solid.particles, Initial residual = 7.3422e-24, Final residual = 7.3422e-24, No Iterations 0
DILUPBiCGStab:  Solving for f5.solid.particles, Initial residual = 0.057219, Final residual = 6.83889e-18, No Iterations 1
DILUPBiCGStab:  Solving for f6.solid.particles, Initial residual = 0.294976, Final residual = 3.37224e-17, No Iterations 1
solid Sauter mean diameter, min, max = 7.16e-05 7.16e-05 7.16e-05
solid sizeGroups-sum volume fraction, min, max = 1 1 1
particles sizeGroup phase fraction first, last = 0 0.017
Constructing momentum equations
GAMG:  Solving for p_rgh, Initial residual = 1.24065e-05, Final residual = 2.445e-09, No Iterations 4
smoothSolver:  Solving for Theta.solid, Initial residual = 0.0799976, Final residual = 1.67427e-10, No Iterations 1
ExecutionTime = 0.5 s


Courant Number mean: 1.39491e-06 max: 1.48088e-06
Max Ur Courant Number = 1.26165e-05
deltaT = 2.07357e-05
Time = 6.44154e-05

PIMPLE: Iteration 1
MULES: Solving for alpha.solid
MULES: Solving for alpha.solid
smoothSolver:  Solving for alpha.solid, Initial residual = 5.76166e-08, Final residual = 4.85292e-17, No Iterations 1
alpha.solid volume fraction = 0.017  Min(alpha1) = 0  Max(alpha1) = 0.0340001
Constructing momentum equations
GAMG:  Solving for p_rgh, Initial residual = 0.00523758, Final residual = 3.78198e-09, No Iterations 8
PIMPLE: Iteration 2
MULES: Solving for alpha.solid
MULES: Solving for alpha.solid
smoothSolver:  Solving for alpha.solid, Initial residual = 4.62304e-08, Final residual = 4.61403e-17, No Iterations 1
alpha.solid volume fraction = 0.017  Min(alpha1) = 0  Max(alpha1) = 0.0340001
Constructing momentum equations
GAMG:  Solving for p_rgh, Initial residual = 1.31013e-05, Final residual = 2.7972e-09, No Iterations 5
PIMPLE: Iteration 3
MULES: Solving for alpha.solid
MULES: Solving for alpha.solid
smoothSolver:  Solving for alpha.solid, Initial residual = 4.37697e-08, Final residual = 4.66653e-17, No Iterations 1
alpha.solid volume fraction = 0.017  Min(alpha1) = 0  Max(alpha1) = 0.0340001
populationBalance particles: Iteration 1
DILUPBiCGStab:  Solving for f0.solid.particles, Initial residual = 0, Final residual = 0, No Iterations 0
DILUPBiCGStab:  Solving for f1.solid.particles, Initial residual = 0, Final residual = 0, No Iterations 0
DILUPBiCGStab:  Solving for f2.solid.particles, Initial residual = 0, Final residual = 0, No Iterations 0
DILUPBiCGStab:  Solving for f3.solid.particles, Initial residual = 0, Final residual = 0, No Iterations 0
DILUPBiCGStab:  Solving for f4.solid.particles, Initial residual = 2.27887e-23, Final residual = 2.27887e-23, No Iterations 0
DILUPBiCGStab:  Solving for f5.solid.particles, Initial residual = 0.0688651, Final residual = 3.31753e-18, No Iterations 1
DILUPBiCGStab:  Solving for f6.solid.particles, Initial residual = 0.275656, Final residual = 4.75862e-17, No Iterations 1
solid Sauter mean diameter, min, max = 7.16e-05 7.16e-05 7.16e-05
solid sizeGroups-sum volume fraction, min, max = 1 1 1
particles sizeGroup phase fraction first, last = 0 0.017
Constructing momentum equations
GAMG:  Solving for p_rgh, Initial residual = 3.23316e-06, Final residual = 2.10646e-09, No Iterations 3
smoothSolver:  Solving for Theta.solid, Initial residual = 0.0960503, Final residual = 2.54205e-11, No Iterations 1
ExecutionTime = 0.62 s


Courant Number mean: 2.413e-06 max: 2.62059e-06
Max Ur Courant Number = 1.75332e-05
deltaT = 2.48826e-05
Time = 8.9298e-05

PIMPLE: Iteration 1
MULES: Solving for alpha.solid
MULES: Solving for alpha.solid
smoothSolver:  Solving for alpha.solid, Initial residual = 5.30755e-08, Final residual = 5.43454e-17, No Iterations 1
alpha.solid volume fraction = 0.017  Min(alpha1) = 0  Max(alpha1) = 0.0340001
Constructing momentum equations
GAMG:  Solving for p_rgh, Initial residual = 0.00861443, Final residual = 3.3406e-09, No Iterations 9
PIMPLE: Iteration 2
MULES: Solving for alpha.solid
MULES: Solving for alpha.solid
smoothSolver:  Solving for alpha.solid, Initial residual = 3.93228e-08, Final residual = 5.22008e-17, No Iterations 1
alpha.solid volume fraction = 0.017  Min(alpha1) = 0  Max(alpha1) = 0.0340001
Constructing momentum equations
GAMG:  Solving for p_rgh, Initial residual = 1.44798e-05, Final residual = 8.71675e-09, No Iterations 5
PIMPLE: Iteration 3
MULES: Solving for alpha.solid
MULES: Solving for alpha.solid
smoothSolver:  Solving for alpha.solid, Initial residual = 3.86654e-08, Final residual = 5.23018e-17, No Iterations 1
alpha.solid volume fraction = 0.017  Min(alpha1) = -1.11122e-51  Max(alpha1) = 0.0340001
populationBalance particles: Iteration 1
DILUPBiCGStab:  Solving for f0.solid.particles, Initial residual = 0, Final residual = 0, No Iterations 0
DILUPBiCGStab:  Solving for f1.solid.particles, Initial residual = 0, Final residual = 0, No Iterations 0
DILUPBiCGStab:  Solving for f2.solid.particles, Initial residual = 0, Final residual = 0, No Iterations 0
DILUPBiCGStab:  Solving for f3.solid.particles, Initial residual = 0, Final residual = 0, No Iterations 0
DILUPBiCGStab:  Solving for f4.solid.particles, Initial residual = 5.73397e-23, Final residual = 5.73397e-23, No Iterations 0
DILUPBiCGStab:  Solving for f5.solid.particles, Initial residual = 0.0779177, Final residual = 5.72884e-18, No Iterations 1
DILUPBiCGStab:  Solving for f6.solid.particles, Initial residual = 0.224868, Final residual = 9.13053e-17, No Iterations 1
solid Sauter mean diameter, min, max = 7.16e-05 7.16e-05 7.16e-05
solid sizeGroups-sum volume fraction, min, max = 1 1 1
particles sizeGroup phase fraction first, last = 0 0.017
Constructing momentum equations
GAMG:  Solving for p_rgh, Initial residual = 4.08817e-07, Final residual = 5.70083e-09, No Iterations 2
smoothSolver:  Solving for Theta.solid, Initial residual = 0.115271, Final residual = 1.1673e-10, No Iterations 1
ExecutionTime = 0.75 s


Courant Number mean: 3.90298e-06 max: 4.35864e-06
Max Ur Courant Number = 2.23428e-05
deltaT = 2.98588e-05
Time = 0.000119157

PIMPLE: Iteration 1
MULES: Solving for alpha.solid
MULES: Solving for alpha.solid
smoothSolver:  Solving for alpha.solid, Initial residual = 4.63798e-08, Final residual = 5.26773e-17, No Iterations 1
alpha.solid volume fraction = 0.017  Min(alpha1) = 0  Max(alpha1) = 0.0340002
Constructing momentum equations
GAMG:  Solving for p_rgh, Initial residual = 0.0137715, Final residual = 5.20164e-09, No Iterations 10
PIMPLE: Iteration 2
MULES: Solving for alpha.solid
MULES: Solving for alpha.solid
smoothSolver:  Solving for alpha.solid, Initial residual = 3.55979e-08, Final residual = 5.47543e-17, No Iterations 1
alpha.solid volume fraction = 0.017  Min(alpha1) = 0  Max(alpha1) = 0.0340002
Constructing momentum equations
GAMG:  Solving for p_rgh, Initial residual = 2.15973e-05, Final residual = 7.80084e-09, No Iterations 6
PIMPLE: Iteration 3
MULES: Solving for alpha.solid
MULES: Solving for alpha.solid
smoothSolver:  Solving for alpha.solid, Initial residual = 3.54132e-08, Final residual = 5.63316e-17, No Iterations 1
alpha.solid volume fraction = 0.017  Min(alpha1) = -3.19323e-84  Max(alpha1) = 0.0340002
populationBalance particles: Iteration 1
DILUPBiCGStab:  Solving for f0.solid.particles, Initial residual = 0, Final residual = 0, No Iterations 0
DILUPBiCGStab:  Solving for f1.solid.particles, Initial residual = 0, Final residual = 0, No Iterations 0
DILUPBiCGStab:  Solving for f2.solid.particles, Initial residual = 0, Final residual = 0, No Iterations 0
DILUPBiCGStab:  Solving for f3.solid.particles, Initial residual = 0, Final residual = 0, No Iterations 0
DILUPBiCGStab:  Solving for f4.solid.particles, Initial residual = 1.27328e-22, Final residual = 1.27328e-22, No Iterations 0
DILUPBiCGStab:  Solving for f5.solid.particles, Initial residual = 0.0846355, Final residual = 4.92416e-18, No Iterations 1
DILUPBiCGStab:  Solving for f6.solid.particles, Initial residual = 0.171143, Final residual = 6.33585e-17, No Iterations 1
solid Sauter mean diameter, min, max = 7.16e-05 7.16e-05 7.16e-05
solid sizeGroups-sum volume fraction, min, max = 1 1 1
particles sizeGroup phase fraction first, last = 0 0.017
Constructing momentum equations
GAMG:  Solving for p_rgh, Initial residual = 4.84025e-07, Final residual = 2.52634e-09, No Iterations 3
smoothSolver:  Solving for Theta.solid, Initial residual = 0.138342, Final residual = 1.82648e-10, No Iterations 1
ExecutionTime = 0.87 s


Courant Number mean: 6.03533e-06 max: 6.9902e-06
Max Ur Courant Number = 2.72693e-05
deltaT = 3.58305e-05
Time = 0.000154987

PIMPLE: Iteration 1
MULES: Solving for alpha.solid
MULES: Solving for alpha.solid
smoothSolver:  Solving for alpha.solid, Initial residual = 4.25165e-08, Final residual = 4.16562e-17, No Iterations 1
alpha.solid volume fraction = 0.017  Min(alpha1) = 0  Max(alpha1) = 0.0340003
Constructing momentum equations
GAMG:  Solving for p_rgh, Initial residual = 0.0217888, Final residual = 7.06533e-09, No Iterations 11
PIMPLE: Iteration 2
MULES: Solving for alpha.solid
MULES: Solving for alpha.solid
smoothSolver:  Solving for alpha.solid, Initial residual = 3.33738e-08, Final residual = 4.15998e-17, No Iterations 1
alpha.solid volume fraction = 0.017  Min(alpha1) = 0  Max(alpha1) = 0.0340003
Constructing momentum equations
GAMG:  Solving for p_rgh, Initial residual = 3.38763e-05, Final residual = 8.22771e-09, No Iterations 7
PIMPLE: Iteration 3
MULES: Solving for alpha.solid
MULES: Solving for alpha.solid
smoothSolver:  Solving for alpha.solid, Initial residual = 3.34131e-08, Final residual = 4.15825e-17, No Iterations 1
alpha.solid volume fraction = 0.017  Min(alpha1) = -4.29432e-93  Max(alpha1) = 0.0340003
populationBalance particles: Iteration 1
DILUPBiCGStab:  Solving for f0.solid.particles, Initial residual = 0, Final residual = 0, No Iterations 0
DILUPBiCGStab:  Solving for f1.solid.particles, Initial residual = 0, Final residual = 0, No Iterations 0
DILUPBiCGStab:  Solving for f2.solid.particles, Initial residual = 0, Final residual = 0, No Iterations 0
DILUPBiCGStab:  Solving for f3.solid.particles, Initial residual = 0, Final residual = 0, No Iterations 0
DILUPBiCGStab:  Solving for f4.solid.particles, Initial residual = 2.59408e-22, Final residual = 2.59408e-22, No Iterations 0
DILUPBiCGStab:  Solving for f5.solid.particles, Initial residual = 0.0893256, Final residual = 4.23752e-18, No Iterations 1
DILUPBiCGStab:  Solving for f6.solid.particles, Initial residual = 0.167187, Final residual = 5.97334e-17, No Iterations 1
solid Sauter mean diameter, min, max = 7.16e-05 7.16e-05 7.16e-05
solid sizeGroups-sum volume fraction, min, max = 1 1 1
particles sizeGroup phase fraction first, last = 0 0.017
Constructing momentum equations
GAMG:  Solving for p_rgh, Initial residual = 1.96517e-05, Final residual = 5.44201e-09, No Iterations 5
smoothSolver:  Solving for Theta.solid, Initial residual = 0.166089, Final residual = 2.45195e-10, No Iterations 1
ExecutionTime = 0.99 s


Courant Number mean: 9.01783e-06 max: 1.09112e-05
Max Ur Courant Number = 3.20748e-05
deltaT = 4.29963e-05
Time = 0.000197984

PIMPLE: Iteration 1
MULES: Solving for alpha.solid
MULES: Solving for alpha.solid
smoothSolver:  Solving for alpha.solid, Initial residual = 3.56779e-08, Final residual = 4.80074e-17, No Iterations 1
alpha.solid volume fraction = 0.017  Min(alpha1) = 0  Max(alpha1) = 0.0340004
Constructing momentum equations
GAMG:  Solving for p_rgh, Initial residual = 0.0346177, Final residual = 6.52299e-09, No Iterations 12
PIMPLE: Iteration 2
MULES: Solving for alpha.solid
MULES: Solving for alpha.solid
smoothSolver:  Solving for alpha.solid, Initial residual = 2.87926e-08, Final residual = 4.63987e-17, No Iterations 1
alpha.solid volume fraction = 0.017  Min(alpha1) = 0  Max(alpha1) = 0.0340004
Constructing momentum equations
GAMG:  Solving for p_rgh, Initial residual = 6.95687e-05, Final residual = 9.3741e-09, No Iterations 8
PIMPLE: Iteration 3
MULES: Solving for alpha.solid
MULES: Solving for alpha.solid
smoothSolver:  Solving for alpha.solid, Initial residual = 3.2141e-08, Final residual = 4.45385e-17, No Iterations 1
alpha.solid volume fraction = 0.017  Min(alpha1) = 0  Max(alpha1) = 0.0340004
populationBalance particles: Iteration 1
DILUPBiCGStab:  Solving for f0.solid.particles, Initial residual = 0, Final residual = 0, No Iterations 0
DILUPBiCGStab:  Solving for f1.solid.particles, Initial residual = 0, Final residual = 0, No Iterations 0
DILUPBiCGStab:  Solving for f2.solid.particles, Initial residual = 0, Final residual = 0, No Iterations 0
DILUPBiCGStab:  Solving for f3.solid.particles, Initial residual = 0, Final residual = 0, No Iterations 0
DILUPBiCGStab:  Solving for f4.solid.particles, Initial residual = 4.95231e-22, Final residual = 4.95231e-22, No Iterations 0
DILUPBiCGStab:  Solving for f5.solid.particles, Initial residual = 0.0923115, Final residual = 1.0879e-17, No Iterations 1
DILUPBiCGStab:  Solving for f6.solid.particles, Initial residual = 0.187537, Final residual = 1.42423e-16, No Iterations 1
solid Sauter mean diameter, min, max = 7.16e-05 7.16e-05 7.16e-05
solid sizeGroups-sum volume fraction, min, max = 1 1 1
particles sizeGroup phase fraction first, last = 0 0.017
Constructing momentum equations
GAMG:  Solving for p_rgh, Initial residual = 1.52553e-05, Final residual = 5.54565e-09, No Iterations 5
smoothSolver:  Solving for Theta.solid, Initial residual = 0.19946, Final residual = 3.17569e-10, No Iterations 1
ExecutionTime = 1.12 s


Courant Number mean: 1.30817e-05 max: 1.67148e-05
Max Ur Courant Number = 3.68817e-05
deltaT = 5.15945e-05
Time = 0.000249578

PIMPLE: Iteration 1
MULES: Solving for alpha.solid
MULES: Solving for alpha.solid
smoothSolver:  Solving for alpha.solid, Initial residual = 3.49126e-08, Final residual = 4.84157e-17, No Iterations 1
alpha.solid volume fraction = 0.017  Min(alpha1) = 0  Max(alpha1) = 0.0340006
Constructing momentum equations
GAMG:  Solving for p_rgh, Initial residual = 0.0562434, Final residual = 3.75406e-09, No Iterations 14
PIMPLE: Iteration 2
MULES: Solving for alpha.solid
MULES: Solving for alpha.solid
smoothSolver:  Solving for alpha.solid, Initial residual = 2.8228e-08, Final residual = 4.80337e-17, No Iterations 1
alpha.solid volume fraction = 0.017  Min(alpha1) = 0  Max(alpha1) = 0.0340006
Constructing momentum equations
GAMG:  Solving for p_rgh, Initial residual = 0.000137815, Final residual = 9.87478e-09, No Iterations 9
PIMPLE: Iteration 3
MULES: Solving for alpha.solid
MULES: Solving for alpha.solid
smoothSolver:  Solving for alpha.solid, Initial residual = 2.85782e-08, Final residual = 4.68364e-17, No Iterations 1
alpha.solid volume fraction = 0.017  Min(alpha1) = 0  Max(alpha1) = 0.0340006
populationBalance particles: Iteration 1
DILUPBiCGStab:  Solving for f0.solid.particles, Initial residual = 0, Final residual = 0, No Iterations 0
DILUPBiCGStab:  Solving for f1.solid.particles, Initial residual = 0, Final residual = 0, No Iterations 0
DILUPBiCGStab:  Solving for f2.solid.particles, Initial residual = 0, Final residual = 0, No Iterations 0
DILUPBiCGStab:  Solving for f3.solid.particles, Initial residual = 0, Final residual = 0, No Iterations 0
DILUPBiCGStab:  Solving for f4.solid.particles, Initial residual = 8.971e-22, Final residual = 8.971e-22, No Iterations 0
DILUPBiCGStab:  Solving for f5.solid.particles, Initial residual = 0.0939012, Final residual = 1.4452e-18, No Iterations 1
DILUPBiCGStab:  Solving for f6.solid.particles, Initial residual = 0.127689, Final residual = 1.14626e-16, No Iterations 1
solid Sauter mean diameter, min, max = 7.16e-05 7.16e-05 7.16e-05
solid sizeGroups-sum volume fraction, min, max = 1 1 1
particles sizeGroup phase fraction first, last = 0 0.017
Constructing momentum equations
GAMG:  Solving for p_rgh, Initial residual = 5.77504e-06, Final residual = 5.24779e-09, No Iterations 5
smoothSolver:  Solving for Theta.solid, Initial residual = 0.23959, Final residual = 4.05079e-10, No Iterations 1
ExecutionTime = 1.24 s


Courant Number mean: 1.84407e-05 max: 2.51889e-05
Max Ur Courant Number = 4.12908e-05
deltaT = 6.19118e-05
Time = 0.00031149

PIMPLE: Iteration 1
MULES: Solving for alpha.solid
MULES: Solving for alpha.solid
smoothSolver:  Solving for alpha.solid, Initial residual = 3.44069e-08, Final residual = 4.66842e-17, No Iterations 1
alpha.solid volume fraction = 0.017  Min(alpha1) = 0  Max(alpha1) = 0.0340009
Constructing momentum equations
GAMG:  Solving for p_rgh, Initial residual = 0.0944174, Final residual = 4.75314e-09, No Iterations 16
PIMPLE: Iteration 2
MULES: Solving for alpha.solid
MULES: Solving for alpha.solid
smoothSolver:  Solving for alpha.solid, Initial residual = 2.76949e-08, Final residual = 4.82407e-17, No Iterations 1
alpha.solid volume fraction = 0.017  Min(alpha1) = 0  Max(alpha1) = 0.0340009
Constructing momentum equations
GAMG:  Solving for p_rgh, Initial residual = 0.000270892, Final residual = 9.85889e-09, No Iterations 10
PIMPLE: Iteration 3
MULES: Solving for alpha.solid
MULES: Solving for alpha.solid
smoothSolver:  Solving for alpha.solid, Initial residual = 2.81517e-08, Final residual = 4.73637e-17, No Iterations 1
alpha.solid volume fraction = 0.017  Min(alpha1) = -1.01458e-186  Max(alpha1) = 0.0340009
populationBalance particles: Iteration 1
DILUPBiCGStab:  Solving for f0.solid.particles, Initial residual = 0, Final residual = 0, No Iterations 0
DILUPBiCGStab:  Solving for f1.solid.particles, Initial residual = 0, Final residual = 0, No Iterations 0
DILUPBiCGStab:  Solving for f2.solid.particles, Initial residual = 0, Final residual = 0, No Iterations 0
DILUPBiCGStab:  Solving for f3.solid.particles, Initial residual = 0, Final residual = 0, No Iterations 0
DILUPBiCGStab:  Solving for f4.solid.particles, Initial residual = 1.55399e-21, Final residual = 1.55399e-21, No Iterations 0
DILUPBiCGStab:  Solving for f5.solid.particles, Initial residual = 0.0943444, Final residual = 7.91142e-18, No Iterations 1
DILUPBiCGStab:  Solving for f6.solid.particles, Initial residual = 0.138351, Final residual = 2.76134e-16, No Iterations 1
solid Sauter mean diameter, min, max = 7.16e-05 7.16e-05 7.16e-05
solid sizeGroups-sum volume fraction, min, max = 1 1 1
particles sizeGroup phase fraction first, last = 0 0.017
Constructing momentum equations
GAMG:  Solving for p_rgh, Initial residual = 1.07346e-05, Final residual = 5.21371e-09, No Iterations 6
smoothSolver:  Solving for Theta.solid, Initial residual = 0.287729, Final residual = 5.15967e-10, No Iterations 1
ExecutionTime = 1.37 s


Courant Number mean: 2.51937e-05 max: 3.70929e-05
Max Ur Courant Number = 4.48735e-05
deltaT = 7.42937e-05
Time = 0.000385784

PIMPLE: Iteration 1
MULES: Solving for alpha.solid
MULES: Solving for alpha.solid
smoothSolver:  Solving for alpha.solid, Initial residual = 3.38993e-08, Final residual = 4.1363e-17, No Iterations 1
alpha.solid volume fraction = 0.017  Min(alpha1) = -3.49684e-182  Max(alpha1) = 0.0340013
Constructing momentum equations
GAMG:  Solving for p_rgh, Initial residual = 0.16832, Final residual = 9.66781e-09, No Iterations 18
PIMPLE: Iteration 2
MULES: Solving for alpha.solid
MULES: Solving for alpha.solid
smoothSolver:  Solving for alpha.solid, Initial residual = 2.69824e-08, Final residual = 4.15319e-17, No Iterations 1
alpha.solid volume fraction = 0.017  Min(alpha1) = -7.15237e-98  Max(alpha1) = 0.0340013
Constructing momentum equations
GAMG:  Solving for p_rgh, Initial residual = 0.000528742, Final residual = 7.88077e-09, No Iterations 12
PIMPLE: Iteration 3
MULES: Solving for alpha.solid
MULES: Solving for alpha.solid
smoothSolver:  Solving for alpha.solid, Initial residual = 2.75592e-08, Final residual = 4.19909e-17, No Iterations 1
alpha.solid volume fraction = 0.017  Min(alpha1) = -3.12328e-97  Max(alpha1) = 0.0340013
populationBalance particles: Iteration 1
DILUPBiCGStab:  Solving for f0.solid.particles, Initial residual = 0, Final residual = 0, No Iterations 0
DILUPBiCGStab:  Solving for f1.solid.particles, Initial residual = 0, Final residual = 0, No Iterations 0
DILUPBiCGStab:  Solving for f2.solid.particles, Initial residual = 0, Final residual = 0, No Iterations 0
DILUPBiCGStab:  Solving for f3.solid.particles, Initial residual = 0, Final residual = 0, No Iterations 0
DILUPBiCGStab:  Solving for f4.solid.particles, Initial residual = 2.58673e-21, Final residual = 2.58673e-21, No Iterations 0
DILUPBiCGStab:  Solving for f5.solid.particles, Initial residual = 0.0938388, Final residual = 2.14614e-17, No Iterations 1
DILUPBiCGStab:  Solving for f6.solid.particles, Initial residual = 0.127406, Final residual = 4.45739e-16, No Iterations 1
solid Sauter mean diameter, min, max = 7.16e-05 7.16e-05 7.16e-05
solid sizeGroups-sum volume fraction, min, max = 1 1 1
particles sizeGroup phase fraction first, last = 0 0.017
Constructing momentum equations
GAMG:  Solving for p_rgh, Initial residual = 1.96033e-05, Final residual = 5.31382e-09, No Iterations 7
smoothSolver:  Solving for Theta.solid, Initial residual = 0.344994, Final residual = 6.5945e-10, No Iterations 1
ExecutionTime = 1.51 s


Courant Number mean: 3.31208e-05 max: 5.2249e-05
Max Ur Courant Number = 4.68233e-05
deltaT = 8.91491e-05
Time = 0.000474933

PIMPLE: Iteration 1
MULES: Solving for alpha.solid
MULES: Solving for alpha.solid
smoothSolver:  Solving for alpha.solid, Initial residual = 3.31783e-08, Final residual = 4.59469e-17, No Iterations 1
alpha.solid volume fraction = 0.017  Min(alpha1) = -2.7762e-97  Max(alpha1) = 0.0340018
Constructing momentum equations
GAMG:  Solving for p_rgh, Initial residual = 0.340139, Final residual = 5.44325e-09, No Iterations 22
PIMPLE: Iteration 2
MULES: Solving for alpha.solid
MULES: Solving for alpha.solid
smoothSolver:  Solving for alpha.solid, Initial residual = 2.59079e-08, Final residual = 4.49754e-17, No Iterations 1
alpha.solid volume fraction = 0.017  Min(alpha1) = -2.99378e-97  Max(alpha1) = 0.0340018
Constructing momentum equations
GAMG:  Solving for p_rgh, Initial residual = 0.00110064, Final residual = 5.60098e-09, No Iterations 15
PIMPLE: Iteration 3
MULES: Solving for alpha.solid
MULES: Solving for alpha.solid
smoothSolver:  Solving for alpha.solid, Initial residual = 2.66408e-08, Final residual = 4.53445e-17, No Iterations 1
alpha.solid volume fraction = 0.017  Min(alpha1) = -1.63053e-197  Max(alpha1) = 0.0340018
populationBalance particles: Iteration 1
DILUPBiCGStab:  Solving for f0.solid.particles, Initial residual = 0, Final residual = 0, No Iterations 0
DILUPBiCGStab:  Solving for f1.solid.particles, Initial residual = 0, Final residual = 0, No Iterations 0
DILUPBiCGStab:  Solving for f2.solid.particles, Initial residual = 0, Final residual = 0, No Iterations 0
DILUPBiCGStab:  Solving for f3.solid.particles, Initial residual = 0, Final residual = 0, No Iterations 0
DILUPBiCGStab:  Solving for f4.solid.particles, Initial residual = 4.15042e-21, Final residual = 4.15042e-21, No Iterations 0
DILUPBiCGStab:  Solving for f5.solid.particles, Initial residual = 0.0925419, Final residual = 3.46198e-17, No Iterations 1
DILUPBiCGStab:  Solving for f6.solid.particles, Initial residual = 0.148764, Final residual = 4.04705e-16, No Iterations 1
solid Sauter mean diameter, min, max = 7.16e-05 7.16e-05 7.16e-05
solid sizeGroups-sum volume fraction, min, max = 1 1 1
particles sizeGroup phase fraction first, last = 0 0.017
Constructing momentum equations
GAMG:  Solving for p_rgh, Initial residual = 3.94138e-05, Final residual = 6.13965e-09, No Iterations 8
smoothSolver:  Solving for Theta.solid, Initial residual = 0.411158, Final residual = 8.45472e-10, No Iterations 1
ExecutionTime = 1.64 s


Courant Number mean: 4.12829e-05 max: 6.80074e-05
Max Ur Courant Number = 4.62733e-05
deltaT = 0.000106978
Time = 0.000581911

PIMPLE: Iteration 1
MULES: Solving for alpha.solid
MULES: Solving for alpha.solid
smoothSolver:  Solving for alpha.solid, Initial residual = 3.205e-08, Final residual = 4.76213e-17, No Iterations 1
alpha.solid volume fraction = 0.017  Min(alpha1) = -1.86897e-98  Max(alpha1) = 0.0340025
Constructing momentum equations
GAMG:  Solving for p_rgh, Initial residual = 0.555668, Final residual = 6.30306e-09, No Iterations 27
PIMPLE: Iteration 2
MULES: Solving for alpha.solid
MULES: Solving for alpha.solid
smoothSolver:  Solving for alpha.solid, Initial residual = 2.4316e-08, Final residual = 4.73497e-17, No Iterations 1
alpha.solid volume fraction = 0.017  Min(alpha1) = -3.00982e-96  Max(alpha1) = 0.0340025
Constructing momentum equations
GAMG:  Solving for p_rgh, Initial residual = 0.000798363, Final residual = 6.79568e-09, No Iterations 15
PIMPLE: Iteration 3
MULES: Solving for alpha.solid
MULES: Solving for alpha.solid
smoothSolver:  Solving for alpha.solid, Initial residual = 2.52334e-08, Final residual = 4.7601e-17, No Iterations 1
alpha.solid volume fraction = 0.017  Min(alpha1) = -1.63086e-96  Max(alpha1) = 0.0340025
populationBalance particles: Iteration 1
DILUPBiCGStab:  Solving for f0.solid.particles, Initial residual = 0, Final residual = 0, No Iterations 0
DILUPBiCGStab:  Solving for f1.solid.particles, Initial residual = 0, Final residual = 0, No Iterations 0
DILUPBiCGStab:  Solving for f2.solid.particles, Initial residual = 0, Final residual = 0, No Iterations 0
DILUPBiCGStab:  Solving for f3.solid.particles, Initial residual = 0, Final residual = 0, No Iterations 0
DILUPBiCGStab:  Solving for f4.solid.particles, Initial residual = 6.42993e-21, Final residual = 6.42993e-21, No Iterations 0
DILUPBiCGStab:  Solving for f5.solid.particles, Initial residual = 0.0905731, Final residual = 3.6934e-17, No Iterations 1
DILUPBiCGStab:  Solving for f6.solid.particles, Initial residual = 0.108008, Final residual = 6.24951e-16, No Iterations 1
solid Sauter mean diameter, min, max = 7.16e-05 7.16e-05 7.16e-05
solid sizeGroups-sum volume fraction, min, max = 1 1 1
particles sizeGroup phase fraction first, last = 0 0.017
Constructing momentum equations
GAMG:  Solving for p_rgh, Initial residual = 2.48816e-05, Final residual = 7.05484e-09, No Iterations 7
smoothSolver:  Solving for Theta.solid, Initial residual = 0.479826, Final residual = 1.04805e-09, No Iterations 1
ExecutionTime = 1.79 s


Courant Number mean: 4.73831e-05 max: 7.85497e-05
Max Ur Courant Number = 4.13148e-05
deltaT = 0.000128374
Time = 0.000710284

PIMPLE: Iteration 1
MULES: Solving for alpha.solid
MULES: Solving for alpha.solid
smoothSolver:  Solving for alpha.solid, Initial residual = 3.03201e-08, Final residual = 4.8369e-17, No Iterations 1
alpha.solid volume fraction = 0.017  Min(alpha1) = -2.42276e-161  Max(alpha1) = 0.0340034
Constructing momentum equations
GAMG:  Solving for p_rgh, Initial residual = 0.327311, Final residual = 5.93418e-09, No Iterations 30
PIMPLE: Iteration 2
MULES: Solving for alpha.solid
MULES: Solving for alpha.solid
smoothSolver:  Solving for alpha.solid, Initial residual = 2.20876e-08, Final residual = 4.84119e-17, No Iterations 1
alpha.solid volume fraction = 0.017  Min(alpha1) = -1.3764e-97  Max(alpha1) = 0.0340034
Constructing momentum equations
GAMG:  Solving for p_rgh, Initial residual = 0.000810106, Final residual = 8.01662e-09, No Iterations 18
PIMPLE: Iteration 3
MULES: Solving for alpha.solid
MULES: Solving for alpha.solid
smoothSolver:  Solving for alpha.solid, Initial residual = 2.31629e-08, Final residual = 4.83321e-17, No Iterations 1
alpha.solid volume fraction = 0.017  Min(alpha1) = -3.88134e-96  Max(alpha1) = 0.0340034
populationBalance particles: Iteration 1
DILUPBiCGStab:  Solving for f0.solid.particles, Initial residual = 0, Final residual = 0, No Iterations 0
DILUPBiCGStab:  Solving for f1.solid.particles, Initial residual = 0, Final residual = 0, No Iterations 0
DILUPBiCGStab:  Solving for f2.solid.particles, Initial residual = 0, Final residual = 0, No Iterations 0
DILUPBiCGStab:  Solving for f3.solid.particles, Initial residual = 0, Final residual = 0, No Iterations 0
DILUPBiCGStab:  Solving for f4.solid.particles, Initial residual = 9.62308e-21, Final residual = 9.62308e-21, No Iterations 0
DILUPBiCGStab:  Solving for f5.solid.particles, Initial residual = 0.0879969, Final residual = 3.72261e-17, No Iterations 1
DILUPBiCGStab:  Solving for f6.solid.particles, Initial residual = 0.117387, Final residual = 9.32585e-16, No Iterations 1
solid Sauter mean diameter, min, max = 7.16e-05 7.16e-05 7.16e-05
solid sizeGroups-sum volume fraction, min, max = 1 1 1
particles sizeGroup phase fraction first, last = 0 0.017
Constructing momentum equations
GAMG:  Solving for p_rgh, Initial residual = 1.17384e-05, Final residual = 6.24901e-09, No Iterations 12
smoothSolver:  Solving for Theta.solid, Initial residual = 0.519903, Final residual = 1.19004e-09, No Iterations 1
ExecutionTime = 1.94 s


Courant Number mean: 4.71613e-05 max: 7.63287e-05
Max Ur Courant Number = 2.94565e-05
deltaT = 0.00015404
Time = 0.000864325

PIMPLE: Iteration 1
MULES: Solving for alpha.solid
MULES: Solving for alpha.solid
smoothSolver:  Solving for alpha.solid, Initial residual = 2.77959e-08, Final residual = 4.22207e-17, No Iterations 1
alpha.solid volume fraction = 0.017  Min(alpha1) = -3.30532e-160  Max(alpha1) = 0.0340045
Constructing momentum equations
GAMG:  Solving for p_rgh, Initial residual = 0.135736, Final residual = 8.34453e-09, No Iterations 30
PIMPLE: Iteration 2
MULES: Solving for alpha.solid
MULES: Solving for alpha.solid
smoothSolver:  Solving for alpha.solid, Initial residual = 1.92395e-08, Final residual = 4.31645e-17, No Iterations 1
alpha.solid volume fraction = 0.017  Min(alpha1) = -6.08215e-175  Max(alpha1) = 0.0340046
Constructing momentum equations
GAMG:  Solving for p_rgh, Initial residual = 0.00142338, Final residual = 7.95481e-09, No Iterations 23
PIMPLE: Iteration 3
MULES: Solving for alpha.solid
MULES: Solving for alpha.solid
smoothSolver:  Solving for alpha.solid, Initial residual = 2.03797e-08, Final residual = 4.19823e-17, No Iterations 1
alpha.solid volume fraction = 0.017  Min(alpha1) = -2.33859e-95  Max(alpha1) = 0.0340046
populationBalance particles: Iteration 1
DILUPBiCGStab:  Solving for f0.solid.particles, Initial residual = 0, Final residual = 0, No Iterations 0
DILUPBiCGStab:  Solving for f1.solid.particles, Initial residual = 0, Final residual = 0, No Iterations 0
DILUPBiCGStab:  Solving for f2.solid.particles, Initial residual = 0, Final residual = 0, No Iterations 0
DILUPBiCGStab:  Solving for f3.solid.particles, Initial residual = 0, Final residual = 0, No Iterations 0
DILUPBiCGStab:  Solving for f4.solid.particles, Initial residual = 1.39146e-20, Final residual = 1.39146e-20, No Iterations 0
DILUPBiCGStab:  Solving for f5.solid.particles, Initial residual = 0.0848943, Final residual = 3.29997e-17, No Iterations 1
DILUPBiCGStab:  Solving for f6.solid.particles, Initial residual = 0.114453, Final residual = 7.83402e-16, No Iterations 1
solid Sauter mean diameter, min, max = 7.16e-05 7.16e-05 7.16e-05
solid sizeGroups-sum volume fraction, min, max = 1 1 1
particles sizeGroup phase fraction first, last = 0 0.017
Constructing momentum equations
GAMG:  Solving for p_rgh, Initial residual = 2.39476e-05, Final residual = 6.6049e-09, No Iterations 15
smoothSolver:  Solving for Theta.solid, Initial residual = 0.431528, Final residual = 1.14463e-09, No Iterations 1
ExecutionTime = 2.09 s


Courant Number mean: 3.50819e-05 max: 5.47202e-05
Max Ur Courant Number = 3.96628e-05
deltaT = 0.000184848
Time = 0.00104917

PIMPLE: Iteration 1
MULES: Solving for alpha.solid
MULES: Solving for alpha.solid
smoothSolver:  Solving for alpha.solid, Initial residual = 2.44431e-08, Final residual = 4.73974e-17, No Iterations 1
alpha.solid volume fraction = 0.017  Min(alpha1) = 0  Max(alpha1) = 0.0340059
Constructing momentum equations
GAMG:  Solving for p_rgh, Initial residual = 0.0269902, Final residual = 7.2092e-09, No Iterations 34
PIMPLE: Iteration 2
MULES: Solving for alpha.solid
MULES: Solving for alpha.solid
smoothSolver:  Solving for alpha.solid, Initial residual = 1.61113e-08, Final residual = 4.45349e-17, No Iterations 1
alpha.solid volume fraction = 0.017  Min(alpha1) = -5.76459e-161  Max(alpha1) = 0.034006
Constructing momentum equations
GAMG:  Solving for p_rgh, Initial residual = 0.0021461, Final residual = 7.73695e-09, No Iterations 29
PIMPLE: Iteration 3
MULES: Solving for alpha.solid
MULES: Solving for alpha.solid
smoothSolver:  Solving for alpha.solid, Initial residual = 1.66089e-08, Final residual = 4.58285e-17, No Iterations 1
alpha.solid volume fraction = 0.017  Min(alpha1) = -1.31758e-95  Max(alpha1) = 0.034006
populationBalance particles: Iteration 1
DILUPBiCGStab:  Solving for f0.solid.particles, Initial residual = 0, Final residual = 0, No Iterations 0
DILUPBiCGStab:  Solving for f1.solid.particles, Initial residual = 0, Final residual = 0, No Iterations 0
DILUPBiCGStab:  Solving for f2.solid.particles, Initial residual = 0, Final residual = 0, No Iterations 0
DILUPBiCGStab:  Solving for f3.solid.particles, Initial residual = 0, Final residual = 0, No Iterations 0
DILUPBiCGStab:  Solving for f4.solid.particles, Initial residual = 1.94731e-20, Final residual = 1.94731e-20, No Iterations 0
DILUPBiCGStab:  Solving for f5.solid.particles, Initial residual = 0.0814976, Final residual = 1.4951e-17, No Iterations 1
DILUPBiCGStab:  Solving for f6.solid.particles, Initial residual = 0.130708, Final residual = 8.01652e-16, No Iterations 1
solid Sauter mean diameter, min, max = 7.16e-05 7.16e-05 7.16e-05
solid sizeGroups-sum volume fraction, min, max = 1 1 1
particles sizeGroup phase fraction first, last = 0 0.017
Constructing momentum equations
GAMG:  Solving for p_rgh, Initial residual = 4.08634e-05, Final residual = 7.91082e-09, No Iterations 19
smoothSolver:  Solving for Theta.solid, Initial residual = 0.137538, Final residual = 7.28863e-10, No Iterations 1
ExecutionTime = 2.24 s


Courant Number mean: 8.17967e-06 max: 1.16282e-05
Max Ur Courant Number = 6.12094e-05
deltaT = 0.00022181
Time = 0.00127098

PIMPLE: Iteration 1
MULES: Solving for alpha.solid
MULES: Solving for alpha.solid
smoothSolver:  Solving for alpha.solid, Initial residual = 1.99275e-08, Final residual = 4.70197e-17, No Iterations 1
alpha.solid volume fraction = 0.017  Min(alpha1) = 0  Max(alpha1) = 0.0340077
Constructing momentum equations
GAMG:  Solving for p_rgh, Initial residual = 0.0856447, Final residual = 7.14867e-09, No Iterations 43
PIMPLE: Iteration 2
MULES: Solving for alpha.solid
MULES: Solving for alpha.solid
smoothSolver:  Solving for alpha.solid, Initial residual = 1.24543e-08, Final residual = 4.80233e-17, No Iterations 1
alpha.solid volume fraction = 0.017  Min(alpha1) = 0  Max(alpha1) = 0.0340077
Constructing momentum equations
GAMG:  Solving for p_rgh, Initial residual = 0.00281756, Final residual = 7.67322e-09, No Iterations 35
PIMPLE: Iteration 3
MULES: Solving for alpha.solid
MULES: Solving for alpha.solid
smoothSolver:  Solving for alpha.solid, Initial residual = 1.14906e-08, Final residual = 4.69259e-17, No Iterations 1
alpha.solid volume fraction = 0.017  Min(alpha1) = 0  Max(alpha1) = 0.0340077
populationBalance particles: Iteration 1
DILUPBiCGStab:  Solving for f0.solid.particles, Initial residual = 0, Final residual = 0, No Iterations 0
DILUPBiCGStab:  Solving for f1.solid.particles, Initial residual = 0, Final residual = 0, No Iterations 0
DILUPBiCGStab:  Solving for f2.solid.particles, Initial residual = 0, Final residual = 0, No Iterations 0
DILUPBiCGStab:  Solving for f3.solid.particles, Initial residual = 0, Final residual = 0, No Iterations 0
DILUPBiCGStab:  Solving for f4.solid.particles, Initial residual = 2.65085e-20, Final residual = 2.65085e-20, No Iterations 0
DILUPBiCGStab:  Solving for f5.solid.particles, Initial residual = 0.0781807, Final residual = 1.36164e-17, No Iterations 1
DILUPBiCGStab:  Solving for f6.solid.particles, Initial residual = 0.0987814, Final residual = 3.16651e-16, No Iterations 1
solid Sauter mean diameter, min, max = 7.16e-05 7.16e-05 7.16e-05
solid sizeGroups-sum volume fraction, min, max = 1 1 1
particles sizeGroup phase fraction first, last = 0 0.017
Constructing momentum equations
GAMG:  Solving for p_rgh, Initial residual = 5.68381e-05, Final residual = 9.12246e-09, No Iterations 23
smoothSolver:  Solving for Theta.solid, Initial residual = 0.174864, Final residual = 3.22071e-10, No Iterations 1
ExecutionTime = 2.42 s


Courant Number mean: 2.72938e-05 max: 4.34623e-05
Max Ur Courant Number = 8.22882e-05
deltaT = 0.000266142
Time = 0.00153713

PIMPLE: Iteration 1
MULES: Solving for alpha.solid
MULES: Solving for alpha.solid
smoothSolver:  Solving for alpha.solid, Initial residual = 1.37762e-08, Final residual = 4.84451e-17, No Iterations 1
alpha.solid volume fraction = 0.017  Min(alpha1) = 0  Max(alpha1) = 0.0340098
Constructing momentum equations
GAMG:  Solving for p_rgh, Initial residual = 0.184481, Final residual = 7.58129e-09, No Iterations 57
PIMPLE: Iteration 2
MULES: Solving for alpha.solid
MULES: Solving for alpha.solid
smoothSolver:  Solving for alpha.solid, Initial residual = 7.72261e-09, Final residual = 4.87383e-17, No Iterations 1
alpha.solid volume fraction = 0.017  Min(alpha1) = 0  Max(alpha1) = 0.0340098
Constructing momentum equations
GAMG:  Solving for p_rgh, Initial residual = 0.0024216, Final residual = 7.95688e-09, No Iterations 40
PIMPLE: Iteration 3
MULES: Solving for alpha.solid
MULES: Solving for alpha.solid
smoothSolver:  Solving for alpha.solid, Initial residual = 7.36023e-09, Final residual = 4.89572e-17, No Iterations 1
alpha.solid volume fraction = 0.017  Min(alpha1) = 0  Max(alpha1) = 0.0340098
populationBalance particles: Iteration 1
DILUPBiCGStab:  Solving for f0.solid.particles, Initial residual = 0, Final residual = 0, No Iterations 0
DILUPBiCGStab:  Solving for f1.solid.particles, Initial residual = 0, Final residual = 0, No Iterations 0
DILUPBiCGStab:  Solving for f2.solid.particles, Initial residual = 0, Final residual = 0, No Iterations 0
DILUPBiCGStab:  Solving for f3.solid.particles, Initial residual = 0, Final residual = 0, No Iterations 0
DILUPBiCGStab:  Solving for f4.solid.particles, Initial residual = 3.53581e-20, Final residual = 3.53581e-20, No Iterations 0
DILUPBiCGStab:  Solving for f5.solid.particles, Initial residual = 0.0753122, Final residual = 1.5561e-20, No Iterations 1
DILUPBiCGStab:  Solving for f6.solid.particles, Initial residual = 0.102475, Final residual = 2.05652e-16, No Iterations 1
solid Sauter mean diameter, min, max = 7.16e-05 7.16e-05 7.16e-05
solid sizeGroups-sum volume fraction, min, max = 1 1 1
particles sizeGroup phase fraction first, last = 0 0.017
Constructing momentum equations
GAMG:  Solving for p_rgh, Initial residual = 4.67524e-05, Final residual = 9.20667e-09, No Iterations 26
smoothSolver:  Solving for Theta.solid, Initial residual = 0.14902, Final residual = 6.48504e-11, No Iterations 1
ExecutionTime = 2.61 s


Courant Number mean: 5.27301e-05 max: 8.27735e-05
Max Ur Courant Number = 9.6499e-05
deltaT = 0.000319345
Time = 0.00185647

PIMPLE: Iteration 1
MULES: Solving for alpha.solid
MULES: Solving for alpha.solid
smoothSolver:  Solving for alpha.solid, Initial residual = 8.82647e-09, Final residual = 4.31819e-17, No Iterations 1
alpha.solid volume fraction = 0.017  Min(alpha1) = 0  Max(alpha1) = 0.0340123
Constructing momentum equations
GAMG:  Solving for p_rgh, Initial residual = 0.190139, Final residual = 9.99745e-09, No Iterations 69
PIMPLE: Iteration 2
MULES: Solving for alpha.solid
MULES: Solving for alpha.solid
smoothSolver:  Solving for alpha.solid, Initial residual = 5.98204e-09, Final residual = 4.24769e-17, No Iterations 1
alpha.solid volume fraction = 0.017  Min(alpha1) = 0  Max(alpha1) = 0.0340124
Constructing momentum equations
GAMG:  Solving for p_rgh, Initial residual = 0.00128021, Final residual = 7.541e-09, No Iterations 44
PIMPLE: Iteration 3
MULES: Solving for alpha.solid
MULES: Solving for alpha.solid
smoothSolver:  Solving for alpha.solid, Initial residual = 6.17674e-09, Final residual = 4.31589e-17, No Iterations 1
alpha.solid volume fraction = 0.017  Min(alpha1) = 0  Max(alpha1) = 0.0340124
populationBalance particles: Iteration 1
DILUPBiCGStab:  Solving for f0.solid.particles, Initial residual = 0, Final residual = 0, No Iterations 0
DILUPBiCGStab:  Solving for f1.solid.particles, Initial residual = 0, Final residual = 0, No Iterations 0
DILUPBiCGStab:  Solving for f2.solid.particles, Initial residual = 0, Final residual = 0, No Iterations 0
DILUPBiCGStab:  Solving for f3.solid.particles, Initial residual = 0, Final residual = 0, No Iterations 0
DILUPBiCGStab:  Solving for f4.solid.particles, Initial residual = 4.6511e-20, Final residual = 4.6511e-20, No Iterations 0
DILUPBiCGStab:  Solving for f5.solid.particles, Initial residual = 0.0730323, Final residual = 5.21378e-19, No Iterations 1
DILUPBiCGStab:  Solving for f6.solid.particles, Initial residual = 0.117502, Final residual = 3.40436e-16, No Iterations 1
solid Sauter mean diameter, min, max = 7.16e-05 7.16e-05 7.16e-05
solid sizeGroups-sum volume fraction, min, max = 1 1 1
particles sizeGroup phase fraction first, last = 0 0.017
Constructing momentum equations
GAMG:  Solving for p_rgh, Initial residual = 3.29663e-05, Final residual = 8.73078e-09, No Iterations 28
smoothSolver:  Solving for Theta.solid, Initial residual = 0.237395, Final residual = 4.75715e-11, No Iterations 1
ExecutionTime = 2.8 s


Courant Number mean: 4.81198e-05 max: 7.55398e-05
Max Ur Courant Number = 0.000101415
deltaT = 0.000383153
Time = 0.00223962

PIMPLE: Iteration 1
MULES: Solving for alpha.solid
MULES: Solving for alpha.solid
smoothSolver:  Solving for alpha.solid, Initial residual = 7.40984e-09, Final residual = 4.57084e-17, No Iterations 1
alpha.solid volume fraction = 0.017  Min(alpha1) = 0  Max(alpha1) = 0.0340155
Constructing momentum equations
GAMG:  Solving for p_rgh, Initial residual = 0.0559956, Final residual = 9.18263e-09, No Iterations 76
PIMPLE: Iteration 2
MULES: Solving for alpha.solid
MULES: Solving for alpha.solid
smoothSolver:  Solving for alpha.solid, Initial residual = 6.18439e-09, Final residual = 4.61314e-17, No Iterations 1
alpha.solid volume fraction = 0.017  Min(alpha1) = 0  Max(alpha1) = 0.0340155
Constructing momentum equations
GAMG:  Solving for p_rgh, Initial residual = 0.00307026, Final residual = 9.08666e-09, No Iterations 58
PIMPLE: Iteration 3
MULES: Solving for alpha.solid
MULES: Solving for alpha.solid
smoothSolver:  Solving for alpha.solid, Initial residual = 6.72126e-09, Final residual = 4.65758e-17, No Iterations 1
alpha.solid volume fraction = 0.017  Min(alpha1) = 0  Max(alpha1) = 0.0340155
populationBalance particles: Iteration 1
DILUPBiCGStab:  Solving for f0.solid.particles, Initial residual = 0, Final residual = 0, No Iterations 0
DILUPBiCGStab:  Solving for f1.solid.particles, Initial residual = 0, Final residual = 0, No Iterations 0
DILUPBiCGStab:  Solving for f2.solid.particles, Initial residual = 0, Final residual = 0, No Iterations 0
DILUPBiCGStab:  Solving for f3.solid.particles, Initial residual = 0, Final residual = 0, No Iterations 0
DILUPBiCGStab:  Solving for f4.solid.particles, Initial residual = 6.05153e-20, Final residual = 6.05153e-20, No Iterations 0
DILUPBiCGStab:  Solving for f5.solid.particles, Initial residual = 0.0711871, Final residual = 3.76178e-18, No Iterations 1
DILUPBiCGStab:  Solving for f6.solid.particles, Initial residual = 0.122718, Final residual = 2.25631e-15, No Iterations 1
solid Sauter mean diameter, min, max = 7.16e-05 7.16e-05 7.16e-05
solid sizeGroups-sum volume fraction, min, max = 1 1 1
particles sizeGroup phase fraction first, last = 0 0.017
Constructing momentum equations
GAMG:  Solving for p_rgh, Initial residual = 6.49884e-05, Final residual = 9.20384e-09, No Iterations 38
smoothSolver:  Solving for Theta.solid, Initial residual = 0.233914, Final residual = 1.75917e-10, No Iterations 1
ExecutionTime = 3.04 s


Courant Number mean: 1.55691e-05 max: 2.45762e-05
Max Ur Courant Number = 0.000107921
deltaT = 0.000459784
Time = 0.00269941

PIMPLE: Iteration 1
MULES: Solving for alpha.solid
MULES: Solving for alpha.solid
smoothSolver:  Solving for alpha.solid, Initial residual = 8.0696e-09, Final residual = 4.77158e-17, No Iterations 1
alpha.solid volume fraction = 0.017  Min(alpha1) = 0  Max(alpha1) = 0.0340193
Constructing momentum equations
GAMG:  Solving for p_rgh, Initial residual = 0.0453002, Final residual = 9.54492e-09, No Iterations 86
PIMPLE: Iteration 2
MULES: Solving for alpha.solid
MULES: Solving for alpha.solid
smoothSolver:  Solving for alpha.solid, Initial residual = 6.7295e-09, Final residual = 4.8266e-17, No Iterations 1
alpha.solid volume fraction = 0.017  Min(alpha1) = -2.82379e-149  Max(alpha1) = 0.0340194
Constructing momentum equations
GAMG:  Solving for p_rgh, Initial residual = 0.00246599, Final residual = 9.38232e-09, No Iterations 66
PIMPLE: Iteration 3
MULES: Solving for alpha.solid
MULES: Solving for alpha.solid
smoothSolver:  Solving for alpha.solid, Initial residual = 6.98886e-09, Final residual = 4.79881e-17, No Iterations 1
alpha.solid volume fraction = 0.017  Min(alpha1) = -5.54242e-260  Max(alpha1) = 0.0340194
populationBalance particles: Iteration 1
DILUPBiCGStab:  Solving for f0.solid.particles, Initial residual = 0, Final residual = 0, No Iterations 0
DILUPBiCGStab:  Solving for f1.solid.particles, Initial residual = 0, Final residual = 0, No Iterations 0
DILUPBiCGStab:  Solving for f2.solid.particles, Initial residual = 0, Final residual = 0, No Iterations 0
DILUPBiCGStab:  Solving for f3.solid.particles, Initial residual = 0, Final residual = 0, No Iterations 0
DILUPBiCGStab:  Solving for f4.solid.particles, Initial residual = 7.78935e-20, Final residual = 7.78935e-20, No Iterations 0
DILUPBiCGStab:  Solving for f5.solid.particles, Initial residual = 0.0695686, Final residual = 1.19742e-18, No Iterations 1
DILUPBiCGStab:  Solving for f6.solid.particles, Initial residual = 0.0911073, Final residual = 2.32523e-15, No Iterations 1
solid Sauter mean diameter, min, max = 7.16e-05 7.16e-05 7.16e-05
solid sizeGroups-sum volume fraction, min, max = 1 1 1
particles sizeGroup phase fraction first, last = 0 0.017
Constructing momentum equations
GAMG:  Solving for p_rgh, Initial residual = 4.92746e-05, Final residual = 9.01836e-09, No Iterations 43
smoothSolver:  Solving for Theta.solid, Initial residual = 0.0691532, Final residual = 2.77499e-10, No Iterations 1
ExecutionTime = 3.29 s


Courant Number mean: 1.45398e-05 max: 2.30514e-05
Max Ur Courant Number = 0.000130269
deltaT = 0.00055174
Time = 0.00325115

PIMPLE: Iteration 1
MULES: Solving for alpha.solid
MULES: Solving for alpha.solid
smoothSolver:  Solving for alpha.solid, Initial residual = 8.38451e-09, Final residual = 5.13493e-17, No Iterations 1
alpha.solid volume fraction = 0.017  Min(alpha1) = 0  Max(alpha1) = 0.0340239
Constructing momentum equations
GAMG:  Solving for p_rgh, Initial residual = 0.0545221, Final residual = 9.94441e-09, No Iterations 97
PIMPLE: Iteration 2
MULES: Solving for alpha.solid
MULES: Solving for alpha.solid
smoothSolver:  Solving for alpha.solid, Initial residual = 9.09876e-09, Final residual = 5.02176e-17, No Iterations 1
alpha.solid volume fraction = 0.017  Min(alpha1) = 0  Max(alpha1) = 0.034024
Constructing momentum equations
GAMG:  Solving for p_rgh, Initial residual = 0.000319204, Final residual = 9.50473e-09, No Iterations 59
PIMPLE: Iteration 3
MULES: Solving for alpha.solid
MULES: Solving for alpha.solid
smoothSolver:  Solving for alpha.solid, Initial residual = 9.08835e-09, Final residual = 5.07876e-17, No Iterations 1
alpha.solid volume fraction = 0.017  Min(alpha1) = 0  Max(alpha1) = 0.034024
populationBalance particles: Iteration 1
DILUPBiCGStab:  Solving for f0.solid.particles, Initial residual = 0, Final residual = 0, No Iterations 0
DILUPBiCGStab:  Solving for f1.solid.particles, Initial residual = 0, Final residual = 0, No Iterations 0
DILUPBiCGStab:  Solving for f2.solid.particles, Initial residual = 0, Final residual = 0, No Iterations 0
DILUPBiCGStab:  Solving for f3.solid.particles, Initial residual = 0, Final residual = 0, No Iterations 0
DILUPBiCGStab:  Solving for f4.solid.particles, Initial residual = 9.93305e-20, Final residual = 9.93305e-20, No Iterations 0
DILUPBiCGStab:  Solving for f5.solid.particles, Initial residual = 0.0681319, Final residual = 1.64746e-18, No Iterations 1
DILUPBiCGStab:  Solving for f6.solid.particles, Initial residual = 0.0909388, Final residual = 5.1489e-15, No Iterations 1
solid Sauter mean diameter, min, max = 7.16e-05 7.16e-05 7.16e-05
solid sizeGroups-sum volume fraction, min, max = 1 1 1
particles sizeGroup phase fraction first, last = 0 0.017
Constructing momentum equations
GAMG:  Solving for p_rgh, Initial residual = 2.24203e-06, Final residual = 9.0313e-09, No Iterations 27
smoothSolver:  Solving for Theta.solid, Initial residual = 0.0681977, Final residual = 7.745e-10, No Iterations 1
ExecutionTime = 3.51 s


Courant Number mean: 1.75699e-05 max: 2.78633e-05
Max Ur Courant Number = 0.000157409
deltaT = 0.000662052
Time = 0.0039132

PIMPLE: Iteration 1
MULES: Solving for alpha.solid
MULES: Solving for alpha.solid
smoothSolver:  Solving for alpha.solid, Initial residual = 1.09035e-08, Final residual = 4.30842e-17, No Iterations 1
alpha.solid volume fraction = 0.017  Min(alpha1) = 0  Max(alpha1) = 0.0340295
Constructing momentum equations
GAMG:  Solving for p_rgh, Initial residual = 0.0133935, Final residual = 9.08873e-09, No Iterations 94
PIMPLE: Iteration 2
MULES: Solving for alpha.solid
MULES: Solving for alpha.solid
smoothSolver:  Solving for alpha.solid, Initial residual = 2.208e-08, Final residual = 4.33431e-17, No Iterations 1
alpha.solid volume fraction = 0.017  Min(alpha1) = 0  Max(alpha1) = 0.0340295
Constructing momentum equations
GAMG:  Solving for p_rgh, Initial residual = 0.000717688, Final residual = 9.52713e-09, No Iterations 72
PIMPLE: Iteration 3
MULES: Solving for alpha.solid
MULES: Solving for alpha.solid
smoothSolver:  Solving for alpha.solid, Initial residual = 2.20321e-08, Final residual = 4.32163e-17, No Iterations 1
alpha.solid volume fraction = 0.017  Min(alpha1) = -2.82209e-305  Max(alpha1) = 0.0340295
populationBalance particles: Iteration 1
DILUPBiCGStab:  Solving for f0.solid.particles, Initial residual = 0, Final residual = 0, No Iterations 0
DILUPBiCGStab:  Solving for f1.solid.particles, Initial residual = 0, Final residual = 0, No Iterations 0
DILUPBiCGStab:  Solving for f2.solid.particles, Initial residual = 0, Final residual = 0, No Iterations 0
DILUPBiCGStab:  Solving for f3.solid.particles, Initial residual = 0, Final residual = 0, No Iterations 0
DILUPBiCGStab:  Solving for f4.solid.particles, Initial residual = 1.2601e-19, Final residual = 1.2601e-19, No Iterations 0
DILUPBiCGStab:  Solving for f5.solid.particles, Initial residual = 0.0670339, Final residual = 1.94774e-18, No Iterations 1
DILUPBiCGStab:  Solving for f6.solid.particles, Initial residual = 0.0976092, Final residual = 1.03429e-14, No Iterations 1
solid Sauter mean diameter, min, max = 7.16e-05 7.16e-05 7.16e-05
solid sizeGroups-sum volume fraction, min, max = 1 1 1
particles sizeGroup phase fraction first, last = 0 0.017
Constructing momentum equations
GAMG:  Solving for p_rgh, Initial residual = 1.61836e-05, Final residual = 8.96033e-09, No Iterations 45
smoothSolver:  Solving for Theta.solid, Initial residual = 0.0912473, Final residual = 7.14006e-10, No Iterations 1
ExecutionTime = 3.74 s


Courant Number mean: 4.33834e-06 max: 7.13929e-06
Max Ur Courant Number = 0.000190974
deltaT = 0.000794304
Time = 0.0047075

PIMPLE: Iteration 1
MULES: Solving for alpha.solid
MULES: Solving for alpha.solid
smoothSolver:  Solving for alpha.solid, Initial residual = 2.64287e-08, Final residual = 4.6449e-17, No Iterations 1
alpha.solid volume fraction = 0.017  Min(alpha1) = 0  Max(alpha1) = 0.0340361
Constructing momentum equations
GAMG:  Solving for p_rgh, Initial residual = 0.00830116, Final residual = 8.87341e-09, No Iterations 95
PIMPLE: Iteration 2
MULES: Solving for alpha.solid
MULES: Solving for alpha.solid
smoothSolver:  Solving for alpha.solid, Initial residual = 2.2631e-08, Final residual = 4.47183e-17, No Iterations 1
alpha.solid volume fraction = 0.017  Min(alpha1) = 0  Max(alpha1) = 0.0340361
Constructing momentum equations
GAMG:  Solving for p_rgh, Initial residual = 0.000344019, Final residual = 9.8888e-09, No Iterations 71
PIMPLE: Iteration 3
MULES: Solving for alpha.solid
MULES: Solving for alpha.solid
smoothSolver:  Solving for alpha.solid, Initial residual = 2.25113e-08, Final residual = 4.71897e-17, No Iterations 1
alpha.solid volume fraction = 0.017  Min(alpha1) = 0  Max(alpha1) = 0.0340361
populationBalance particles: Iteration 1
DILUPBiCGStab:  Solving for f0.solid.particles, Initial residual = 0, Final residual = 0, No Iterations 0
DILUPBiCGStab:  Solving for f1.solid.particles, Initial residual = 0, Final residual = 0, No Iterations 0
DILUPBiCGStab:  Solving for f2.solid.particles, Initial residual = 0, Final residual = 0, No Iterations 0
DILUPBiCGStab:  Solving for f3.solid.particles, Initial residual = 0, Final residual = 0, No Iterations 0
DILUPBiCGStab:  Solving for f4.solid.particles, Initial residual = 1.59711e-19, Final residual = 1.59711e-19, No Iterations 0
DILUPBiCGStab:  Solving for f5.solid.particles, Initial residual = 0.0663784, Final residual = 6.14017e-18, No Iterations 1
DILUPBiCGStab:  Solving for f6.solid.particles, Initial residual = 0.0996465, Final residual = 1.05965e-14, No Iterations 1
solid Sauter mean diameter, min, max = 7.16e-05 7.16e-05 7.16e-05
solid sizeGroups-sum volume fraction, min, max = 1 1 1
particles sizeGroup phase fraction first, last = 0 0.017
Constructing momentum equations
GAMG:  Solving for p_rgh, Initial residual = 6.64109e-06, Final residual = 9.82256e-09, No Iterations 36
smoothSolver:  Solving for Theta.solid, Initial residual = 0.267106, Final residual = 3.66184e-09, No Iterations 1
ExecutionTime = 3.99 s


Courant Number mean: 2.8488e-06 max: 4.77438e-06
Max Ur Courant Number = 0.00023052
deltaT = 0.000952862
Time = 0.00566037

PIMPLE: Iteration 1
MULES: Solving for alpha.solid
MULES: Solving for alpha.solid
smoothSolver:  Solving for alpha.solid, Initial residual = 2.69958e-08, Final residual = 4.85884e-17, No Iterations 1
alpha.solid volume fraction = 0.017  Min(alpha1) = 0  Max(alpha1) = 0.0340441
Constructing momentum equations
GAMG:  Solving for p_rgh, Initial residual = 0.00483668, Final residual = 9.45435e-09, No Iterations 95
PIMPLE: Iteration 2
MULES: Solving for alpha.solid
MULES: Solving for alpha.solid
smoothSolver:  Solving for alpha.solid, Initial residual = 3.7557e-08, Final residual = 4.78973e-17, No Iterations 1
alpha.solid volume fraction = 0.017  Min(alpha1) = 0  Max(alpha1) = 0.0340441
Constructing momentum equations
GAMG:  Solving for p_rgh, Initial residual = 4.47668e-05, Final residual = 8.89078e-09, No Iterations 56
PIMPLE: Iteration 3
MULES: Solving for alpha.solid
MULES: Solving for alpha.solid
smoothSolver:  Solving for alpha.solid, Initial residual = 3.76455e-08, Final residual = 4.71787e-17, No Iterations 1
alpha.solid volume fraction = 0.017  Min(alpha1) = 0  Max(alpha1) = 0.0340441
populationBalance particles: Iteration 1
DILUPBiCGStab:  Solving for f0.solid.particles, Initial residual = 0, Final residual = 0, No Iterations 0
DILUPBiCGStab:  Solving for f1.solid.particles, Initial residual = 0, Final residual = 0, No Iterations 0
DILUPBiCGStab:  Solving for f2.solid.particles, Initial residual = 0, Final residual = 0, No Iterations 0
DILUPBiCGStab:  Solving for f3.solid.particles, Initial residual = 0, Final residual = 0, No Iterations 0
DILUPBiCGStab:  Solving for f4.solid.particles, Initial residual = 2.0276e-19, Final residual = 2.0276e-19, No Iterations 0
DILUPBiCGStab:  Solving for f5.solid.particles, Initial residual = 0.0661387, Final residual = 3.22637e-18, No Iterations 1
DILUPBiCGStab:  Solving for f6.solid.particles, Initial residual = 0.0815469, Final residual = 1.82314e-14, No Iterations 1
solid Sauter mean diameter, min, max = 7.16e-05 7.16e-05 7.16e-05
solid sizeGroups-sum volume fraction, min, max = 1 1 1
particles sizeGroup phase fraction first, last = 0 0.017
Constructing momentum equations
GAMG:  Solving for p_rgh, Initial residual = 1.20161e-06, Final residual = 9.53482e-09, No Iterations 29
smoothSolver:  Solving for Theta.solid, Initial residual = 0.822241, Final residual = 4.32783e-11, No Iterations 2
ExecutionTime = 4.21 s


Courant Number mean: 1.6507e-06 max: 2.95675e-06
Max Ur Courant Number = 0.000274856
deltaT = 0.00114289
Time = 0.00680325

PIMPLE: Iteration 1
MULES: Solving for alpha.solid
MULES: Solving for alpha.solid
smoothSolver:  Solving for alpha.solid, Initial residual = 4.51403e-08, Final residual = 3.97508e-17, No Iterations 1
alpha.solid volume fraction = 0.017  Min(alpha1) = 0  Max(alpha1) = 0.0340536
Constructing momentum equations
GAMG:  Solving for p_rgh, Initial residual = 0.000568946, Final residual = 9.8717e-09, No Iterations 68
PIMPLE: Iteration 2
MULES: Solving for alpha.solid
MULES: Solving for alpha.solid
smoothSolver:  Solving for alpha.solid, Initial residual = 3.31855e-08, Final residual = 4.0241e-17, No Iterations 1
alpha.solid volume fraction = 0.017  Min(alpha1) = -2.9025e-217  Max(alpha1) = 0.0340536
Constructing momentum equations
GAMG:  Solving for p_rgh, Initial residual = 5.63236e-05, Final residual = 9.02844e-09, No Iterations 62
PIMPLE: Iteration 3
MULES: Solving for alpha.solid
MULES: Solving for alpha.solid
smoothSolver:  Solving for alpha.solid, Initial residual = 3.3365e-08, Final residual = 4.07539e-17, No Iterations 1
alpha.solid volume fraction = 0.017  Min(alpha1) = 0  Max(alpha1) = 0.0340536
populationBalance particles: Iteration 1
DILUPBiCGStab:  Solving for f0.solid.particles, Initial residual = 0, Final residual = 0, No Iterations 0
DILUPBiCGStab:  Solving for f1.solid.particles, Initial residual = 0, Final residual = 0, No Iterations 0
DILUPBiCGStab:  Solving for f2.solid.particles, Initial residual = 0, Final residual = 0, No Iterations 0
DILUPBiCGStab:  Solving for f3.solid.particles, Initial residual = 0, Final residual = 0, No Iterations 0
DILUPBiCGStab:  Solving for f4.solid.particles, Initial residual = 2.5829e-19, Final residual = 2.5829e-19, No Iterations 0
DILUPBiCGStab:  Solving for f5.solid.particles, Initial residual = 0.0662561, Final residual = 4.26891e-18, No Iterations 1
DILUPBiCGStab:  Solving for f6.solid.particles, Initial residual = 0.0836614, Final residual = 1.81297e-14, No Iterations 1
solid Sauter mean diameter, min, max = 7.16e-05 7.16e-05 7.16e-05
solid sizeGroups-sum volume fraction, min, max = 1 1 1
particles sizeGroup phase fraction first, last = 0 0.017
Constructing momentum equations
GAMG:  Solving for p_rgh, Initial residual = 1.05402e-06, Final residual = 9.45888e-09, No Iterations 30
smoothSolver:  Solving for Theta.solid, Initial residual = 0.786801, Final residual = 2.28207e-09, No Iterations 1
ExecutionTime = 4.42 s


Courant Number mean: 4.56014e-08 max: 6.39806e-07
Max Ur Courant Number = 0.000328524
deltaT = 0.00137084
Time = 0.00817409

PIMPLE: Iteration 1
MULES: Solving for alpha.solid
MULES: Solving for alpha.solid
smoothSolver:  Solving for alpha.solid, Initial residual = 4.00053e-08, Final residual = 4.41908e-17, No Iterations 1
alpha.solid volume fraction = 0.017  Min(alpha1) = 0  Max(alpha1) = 0.0340651
Constructing momentum equations
GAMG:  Solving for p_rgh, Initial residual = 0.000838703, Final residual = 9.37317e-09, No Iterations 84
PIMPLE: Iteration 2
MULES: Solving for alpha.solid
MULES: Solving for alpha.solid
smoothSolver:  Solving for alpha.solid, Initial residual = 9.71372e-08, Final residual = 4.92136e-17, No Iterations 1
alpha.solid volume fraction = 0.017  Min(alpha1) = 0  Max(alpha1) = 0.0340651
Constructing momentum equations
GAMG:  Solving for p_rgh, Initial residual = 7.86685e-05, Final residual = 9.92441e-09, No Iterations 40
PIMPLE: Iteration 3
MULES: Solving for alpha.solid
MULES: Solving for alpha.solid
smoothSolver:  Solving for alpha.solid, Initial residual = 9.64556e-08, Final residual = 4.93509e-17, No Iterations 1
alpha.solid volume fraction = 0.017  Min(alpha1) = 0  Max(alpha1) = 0.0340651
populationBalance particles: Iteration 1
DILUPBiCGStab:  Solving for f0.solid.particles, Initial residual = 0, Final residual = 0, No Iterations 0
DILUPBiCGStab:  Solving for f1.solid.particles, Initial residual = 0, Final residual = 0, No Iterations 0
DILUPBiCGStab:  Solving for f2.solid.particles, Initial residual = 0, Final residual = 0, No Iterations 0
DILUPBiCGStab:  Solving for f3.solid.particles, Initial residual = 0, Final residual = 0, No Iterations 0
DILUPBiCGStab:  Solving for f4.solid.particles, Initial residual = 3.30738e-19, Final residual = 3.30738e-19, No Iterations 0
DILUPBiCGStab:  Solving for f5.solid.particles, Initial residual = 0.0667173, Final residual = 1.04789e-17, No Iterations 1
DILUPBiCGStab:  Solving for f6.solid.particles, Initial residual = 0.0929844, Final residual = 3.08455e-14, No Iterations 1
solid Sauter mean diameter, min, max = 7.16e-05 7.16e-05 7.16e-05
solid sizeGroups-sum volume fraction, min, max = 1 1 1
particles sizeGroup phase fraction first, last = 0 0.017
Constructing momentum equations
GAMG:  Solving for p_rgh, Initial residual = 9.81e-07, Final residual = 9.01814e-09, No Iterations 14
smoothSolver:  Solving for Theta.solid, Initial residual = 0.951891, Final residual = 1.80914e-09, No Iterations 1
ExecutionTime = 4.62 s


Courant Number mean: 1.68354e-07 max: 1.07355e-06
Max Ur Courant Number = 0.000393655
deltaT = 0.00164478
Time = 0.00981887

PIMPLE: Iteration 1
MULES: Solving for alpha.solid
MULES: Solving for alpha.solid
smoothSolver:  Solving for alpha.solid, Initial residual = 1.15694e-07, Final residual = 5.4479e-17, No Iterations 1
alpha.solid volume fraction = 0.017  Min(alpha1) = 0  Max(alpha1) = 0.0340789
Constructing momentum equations
GAMG:  Solving for p_rgh, Initial residual = 0.000363072, Final residual = 9.49565e-09, No Iterations 66
PIMPLE: Iteration 2
MULES: Solving for alpha.solid
MULES: Solving for alpha.solid
smoothSolver:  Solving for alpha.solid, Initial residual = 3.55024e-08, Final residual = 4.73146e-17, No Iterations 1
alpha.solid volume fraction = 0.017  Min(alpha1) = 0  Max(alpha1) = 0.0340789
Constructing momentum equations
GAMG:  Solving for p_rgh, Initial residual = 8.98779e-05, Final residual = 9.93409e-09, No Iterations 35
PIMPLE: Iteration 3
MULES: Solving for alpha.solid
MULES: Solving for alpha.solid
smoothSolver:  Solving for alpha.solid, Initial residual = 3.58427e-08, Final residual = 4.64672e-17, No Iterations 1
alpha.solid volume fraction = 0.017  Min(alpha1) = 0  Max(alpha1) = 0.0340789
populationBalance particles: Iteration 1
DILUPBiCGStab:  Solving for f0.solid.particles, Initial residual = 0, Final residual = 0, No Iterations 0
DILUPBiCGStab:  Solving for f1.solid.particles, Initial residual = 0, Final residual = 0, No Iterations 0
DILUPBiCGStab:  Solving for f2.solid.particles, Initial residual = 0, Final residual = 0, No Iterations 0
DILUPBiCGStab:  Solving for f3.solid.particles, Initial residual = 0, Final residual = 0, No Iterations 0
DILUPBiCGStab:  Solving for f4.solid.particles, Initial residual = 4.26476e-19, Final residual = 4.26476e-19, No Iterations 0
DILUPBiCGStab:  Solving for f5.solid.particles, Initial residual = 0.0675307, Final residual = 1.83071e-17, No Iterations 1
DILUPBiCGStab:  Solving for f6.solid.particles, Initial residual = 0.0684044, Final residual = 5.60533e-14, No Iterations 1
solid Sauter mean diameter, min, max = 7.16e-05 7.16e-05 7.16e-05
solid sizeGroups-sum volume fraction, min, max = 1 1 1
particles sizeGroup phase fraction first, last = 0 0.017
Constructing momentum equations
GAMG:  Solving for p_rgh, Initial residual = 9.04805e-07, Final residual = 9.99757e-09, No Iterations 15
smoothSolver:  Solving for Theta.solid, Initial residual = 0.850594, Final residual = 3.79398e-09, No Iterations 1
ExecutionTime = 4.79 s


Courant Number mean: 1.84511e-08 max: 1.02803e-06
Max Ur Courant Number = 0.000472421
deltaT = 0.00197243
Time = 0.0117913

PIMPLE: Iteration 1
MULES: Solving for alpha.solid
MULES: Solving for alpha.solid
smoothSolver:  Solving for alpha.solid, Initial residual = 4.29609e-08, Final residual = 4.77659e-17, No Iterations 1
alpha.solid volume fraction = 0.017  Min(alpha1) = 0  Max(alpha1) = 0.0340954
Constructing momentum equations
GAMG:  Solving for p_rgh, Initial residual = 0.000360714, Final residual = 9.49912e-09, No Iterations 60
PIMPLE: Iteration 2
MULES: Solving for alpha.solid
MULES: Solving for alpha.solid
smoothSolver:  Solving for alpha.solid, Initial residual = 1.20492e-07, Final residual = 5.58246e-17, No Iterations 1
alpha.solid volume fraction = 0.017  Min(alpha1) = 0  Max(alpha1) = 0.0340954
Constructing momentum equations
GAMG:  Solving for p_rgh, Initial residual = 6.79611e-05, Final residual = 9.24405e-09, No Iterations 32
PIMPLE: Iteration 3
MULES: Solving for alpha.solid
MULES: Solving for alpha.solid
smoothSolver:  Solving for alpha.solid, Initial residual = 1.19345e-07, Final residual = 5.62357e-17, No Iterations 1
alpha.solid volume fraction = 0.017  Min(alpha1) = 0  Max(alpha1) = 0.0340954
populationBalance particles: Iteration 1
DILUPBiCGStab:  Solving for f0.solid.particles, Initial residual = 0, Final residual = 0, No Iterations 0
DILUPBiCGStab:  Solving for f1.solid.particles, Initial residual = 0, Final residual = 0, No Iterations 0
DILUPBiCGStab:  Solving for f2.solid.particles, Initial residual = 0, Final residual = 0, No Iterations 0
DILUPBiCGStab:  Solving for f3.solid.particles, Initial residual = 0, Final residual = 0, No Iterations 0
DILUPBiCGStab:  Solving for f4.solid.particles, Initial residual = 5.54682e-19, Final residual = 5.54682e-19, No Iterations 0
DILUPBiCGStab:  Solving for f5.solid.particles, Initial residual = 0.0686297, Final residual = 1.80005e-17, No Iterations 1
DILUPBiCGStab:  Solving for f6.solid.particles, Initial residual = 0.0788436, Final residual = 5.82674e-14, No Iterations 1
solid Sauter mean diameter, min, max = 7.16e-05 7.16e-05 7.16e-05
solid sizeGroups-sum volume fraction, min, max = 1 1 1
particles sizeGroup phase fraction first, last = 0 0.017
Constructing momentum equations
GAMG:  Solving for p_rgh, Initial residual = 1.3046e-06, Final residual = 7.40913e-09, No Iterations 6
smoothSolver:  Solving for Theta.solid, Initial residual = 0.899992, Final residual = 1.95816e-09, No Iterations 2
ExecutionTime = 4.97 s


Courant Number mean: 1.19495e-08 max: 1.00881e-06
Max Ur Courant Number = 0.000566393
deltaT = 0.00236692
Time = 0.0141582

PIMPLE: Iteration 1
MULES: Solving for alpha.solid
MULES: Solving for alpha.solid
smoothSolver:  Solving for alpha.solid, Initial residual = 1.43154e-07, Final residual = 5.53979e-17, No Iterations 1
alpha.solid volume fraction = 0.017  Min(alpha1) = 0  Max(alpha1) = 0.0341152
Constructing momentum equations
GAMG:  Solving for p_rgh, Initial residual = 0.00026765, Final residual = 9.71005e-09, No Iterations 46
PIMPLE: Iteration 2
MULES: Solving for alpha.solid
MULES: Solving for alpha.solid
smoothSolver:  Solving for alpha.solid, Initial residual = 4.91948e-08, Final residual = 4.12768e-17, No Iterations 1
alpha.solid volume fraction = 0.017  Min(alpha1) = 0  Max(alpha1) = 0.0341152
Constructing momentum equations
GAMG:  Solving for p_rgh, Initial residual = 7.18628e-05, Final residual = 9.38556e-09, No Iterations 34
PIMPLE: Iteration 3
MULES: Solving for alpha.solid
MULES: Solving for alpha.solid
smoothSolver:  Solving for alpha.solid, Initial residual = 4.97388e-08, Final residual = 4.14436e-17, No Iterations 1
alpha.solid volume fraction = 0.017  Min(alpha1) = 0  Max(alpha1) = 0.0341152
populationBalance particles: Iteration 1
DILUPBiCGStab:  Solving for f0.solid.particles, Initial residual = 0, Final residual = 0, No Iterations 0
DILUPBiCGStab:  Solving for f1.solid.particles, Initial residual = 0, Final residual = 0, No Iterations 0
DILUPBiCGStab:  Solving for f2.solid.particles, Initial residual = 0, Final residual = 0, No Iterations 0
DILUPBiCGStab:  Solving for f3.solid.particles, Initial residual = 0, Final residual = 0, No Iterations 0
DILUPBiCGStab:  Solving for f4.solid.particles, Initial residual = 7.28613e-19, Final residual = 7.28613e-19, No Iterations 0
DILUPBiCGStab:  Solving for f5.solid.particles, Initial residual = 0.0700777, Final residual = 2.19035e-17, No Iterations 1
DILUPBiCGStab:  Solving for f6.solid.particles, Initial residual = 0.0768862, Final residual = 7.04964e-14, No Iterations 1
solid Sauter mean diameter, min, max = 7.16e-05 7.16e-05 7.16e-05
solid sizeGroups-sum volume fraction, min, max = 1 1 1
particles sizeGroup phase fraction first, last = 0 0.017
Constructing momentum equations
GAMG:  Solving for p_rgh, Initial residual = 1.15429e-06, Final residual = 7.37049e-09, No Iterations 6
smoothSolver:  Solving for Theta.solid, Initial residual = 0.668252, Final residual = 7.02542e-09, No Iterations 1
ExecutionTime = 5.13 s


Courant Number mean: 7.67844e-09 max: 1.03713e-06
Max Ur Courant Number = 0.000679217
deltaT = 0.00283692
Time = 0.0169951

PIMPLE: Iteration 1
MULES: Solving for alpha.solid
MULES: Solving for alpha.solid
smoothSolver:  Solving for alpha.solid, Initial residual = 5.96856e-08, Final residual = 4.58488e-17, No Iterations 1
alpha.solid volume fraction = 0.017  Min(alpha1) = 0  Max(alpha1) = 0.0341389
Constructing momentum equations
GAMG:  Solving for p_rgh, Initial residual = 0.000279982, Final residual = 9.6465e-09, No Iterations 20
PIMPLE: Iteration 2
MULES: Solving for alpha.solid
MULES: Solving for alpha.solid
[...]
Time = 117.2

PIMPLE: Iteration 1
MULES: Solving for alpha.solid
MULES: Solving for alpha.solid
smoothSolver:  Solving for alpha.solid, Initial residual = 0.000197416, Final residual = 1.1301e-10, No Iterations 3
alpha.solid volume fraction = 0.017  Min(alpha1) = 0  Max(alpha1) = 0.0702145
Constructing momentum equations
GAMG:  Solving for p_rgh, Initial residual = 0.000764318, Final residual = 8.66748e-09, No Iterations 39
PIMPLE: Iteration 2
MULES: Solving for alpha.solid
MULES: Solving for alpha.solid
smoothSolver:  Solving for alpha.solid, Initial residual = 0.000231133, Final residual = 3.80966e-10, No Iterations 3
alpha.solid volume fraction = 0.017  Min(alpha1) = 0  Max(alpha1) = 0.0702157
Constructing momentum equations
GAMG:  Solving for p_rgh, Initial residual = 0.000219268, Final residual = 8.62384e-09, No Iterations 33
PIMPLE: Iteration 3
MULES: Solving for alpha.solid
MULES: Solving for alpha.solid
smoothSolver:  Solving for alpha.solid, Initial residual = 0.000226008, Final residual = 3.31697e-10, No Iterations 3
alpha.solid volume fraction = 0.017  Min(alpha1) = 0  Max(alpha1) = 0.0702158
populationBalance particles: Iteration 1
DILUPBiCGStab:  Solving for f0.solid.particles, Initial residual = 0, Final residual = 0, No Iterations 0
DILUPBiCGStab:  Solving for f1.solid.particles, Initial residual = 0, Final residual = 0, No Iterations 0
DILUPBiCGStab:  Solving for f2.solid.particles, Initial residual = 0, Final residual = 0, No Iterations 0
DILUPBiCGStab:  Solving for f3.solid.particles, Initial residual = 0, Final residual = 0, No Iterations 0
DILUPBiCGStab:  Solving for f4.solid.particles, Initial residual = 2.33093e-17, Final residual = 2.33093e-17, No Iterations 0
DILUPBiCGStab:  Solving for f5.solid.particles, Initial residual = 0.0010036, Final residual = 4.48078e-09, No Iterations 1
DILUPBiCGStab:  Solving for f6.solid.particles, Initial residual = 0.042908, Final residual = 8.27971e-07, No Iterations 1
solid Sauter mean diameter, min, max = 7.16e-05 7.16e-05 7.16e-05
solid sizeGroups-sum volume fraction, min, max = 1 1 1
particles sizeGroup phase fraction first, last = 0 0.017
Constructing momentum equations
GAMG:  Solving for p_rgh, Initial residual = 0.000156763, Final residual = 9.98948e-09, No Iterations 32
smoothSolver:  Solving for Theta.solid, Initial residual = 0.263376, Final residual = 1.40224e-09, No Iterations 1
ExecutionTime = 92.73 s


Courant Number mean: 0.00222915 max: 0.0275321
Max Ur Courant Number = 0.114876
deltaT = 0.4
Time = 117.6

PIMPLE: Iteration 1
MULES: Solving for alpha.solid
MULES: Solving for alpha.solid
smoothSolver:  Solving for alpha.solid, Initial residual = 0.000205166, Final residual = 2.54477e-10, No Iterations 3
alpha.solid volume fraction = 0.017  Min(alpha1) = 0  Max(alpha1) = 0.0702159
Constructing momentum equations
GAMG:  Solving for p_rgh, Initial residual = 0.000717389, Final residual = 9.62538e-09, No Iterations 38
PIMPLE: Iteration 2
MULES: Solving for alpha.solid
MULES: Solving for alpha.solid
smoothSolver:  Solving for alpha.solid, Initial residual = 0.000206061, Final residual = 3.51491e-10, No Iterations 3
alpha.solid volume fraction = 0.017  Min(alpha1) = 0  Max(alpha1) = 0.0702164
Constructing momentum equations
GAMG:  Solving for p_rgh, Initial residual = 0.000209654, Final residual = 6.89393e-09, No Iterations 30
PIMPLE: Iteration 3
MULES: Solving for alpha.solid
MULES: Solving for alpha.solid
smoothSolver:  Solving for alpha.solid, Initial residual = 0.000205361, Final residual = 3.28799e-10, No Iterations 3
alpha.solid volume fraction = 0.017  Min(alpha1) = 0  Max(alpha1) = 0.0702162
populationBalance particles: Iteration 1
DILUPBiCGStab:  Solving for f0.solid.particles, Initial residual = 0, Final residual = 0, No Iterations 0
DILUPBiCGStab:  Solving for f1.solid.particles, Initial residual = 0, Final residual = 0, No Iterations 0
DILUPBiCGStab:  Solving for f2.solid.particles, Initial residual = 0, Final residual = 0, No Iterations 0
DILUPBiCGStab:  Solving for f3.solid.particles, Initial residual = 0, Final residual = 0, No Iterations 0
DILUPBiCGStab:  Solving for f4.solid.particles, Initial residual = 2.33223e-17, Final residual = 2.33223e-17, No Iterations 0
DILUPBiCGStab:  Solving for f5.solid.particles, Initial residual = 0.00100461, Final residual = 4.16671e-09, No Iterations 1
DILUPBiCGStab:  Solving for f6.solid.particles, Initial residual = 0.0436924, Final residual = 6.54081e-07, No Iterations 1
solid Sauter mean diameter, min, max = 7.16e-05 7.16e-05 7.16e-05
solid sizeGroups-sum volume fraction, min, max = 1 1 1
particles sizeGroup phase fraction first, last = 0 0.017
Constructing momentum equations
GAMG:  Solving for p_rgh, Initial residual = 0.000148235, Final residual = 7.94889e-09, No Iterations 33
smoothSolver:  Solving for Theta.solid, Initial residual = 0.265239, Final residual = 3.40459e-09, No Iterations 1
ExecutionTime = 92.91 s


Courant Number mean: 0.00221874 max: 0.0274495
Max Ur Courant Number = 0.114906
deltaT = 0.4
Time = 118

PIMPLE: Iteration 1
MULES: Solving for alpha.solid
MULES: Solving for alpha.solid
smoothSolver:  Solving for alpha.solid, Initial residual = 0.000185946, Final residual = 2.82175e-10, No Iterations 3
alpha.solid volume fraction = 0.017  Min(alpha1) = 0  Max(alpha1) = 0.0702163
Constructing momentum equations
GAMG:  Solving for p_rgh, Initial residual = 0.000734233, Final residual = 7.62936e-09, No Iterations 42
PIMPLE: Iteration 2
MULES: Solving for alpha.solid
MULES: Solving for alpha.solid
smoothSolver:  Solving for alpha.solid, Initial residual = 0.000182114, Final residual = 2.63291e-10, No Iterations 3
alpha.solid volume fraction = 0.017  Min(alpha1) = 0  Max(alpha1) = 0.0702165
Constructing momentum equations
GAMG:  Solving for p_rgh, Initial residual = 0.000197693, Final residual = 8.76522e-09, No Iterations 27
PIMPLE: Iteration 3
MULES: Solving for alpha.solid
MULES: Solving for alpha.solid
smoothSolver:  Solving for alpha.solid, Initial residual = 0.00018469, Final residual = 2.96045e-10, No Iterations 3
alpha.solid volume fraction = 0.017  Min(alpha1) = 0  Max(alpha1) = 0.070216
populationBalance particles: Iteration 1
DILUPBiCGStab:  Solving for f0.solid.particles, Initial residual = 0, Final residual = 0, No Iterations 0
DILUPBiCGStab:  Solving for f1.solid.particles, Initial residual = 0, Final residual = 0, No Iterations 0
DILUPBiCGStab:  Solving for f2.solid.particles, Initial residual = 0, Final residual = 0, No Iterations 0
DILUPBiCGStab:  Solving for f3.solid.particles, Initial residual = 0, Final residual = 0, No Iterations 0
DILUPBiCGStab:  Solving for f4.solid.particles, Initial residual = 2.33393e-17, Final residual = 2.33393e-17, No Iterations 0
DILUPBiCGStab:  Solving for f5.solid.particles, Initial residual = 0.00100411, Final residual = 4.69909e-09, No Iterations 1
DILUPBiCGStab:  Solving for f6.solid.particles, Initial residual = 0.041551, Final residual = 5.72173e-07, No Iterations 1
solid Sauter mean diameter, min, max = 7.16e-05 7.16e-05 7.16e-05
solid sizeGroups-sum volume fraction, min, max = 1 1 1
particles sizeGroup phase fraction first, last = 0 0.017
Constructing momentum equations
GAMG:  Solving for p_rgh, Initial residual = 0.000135685, Final residual = 9.45821e-09, No Iterations 28
smoothSolver:  Solving for Theta.solid, Initial residual = 0.267011, Final residual = 1.88548e-09, No Iterations 1
ExecutionTime = 93.26 s


Courant Number mean: 0.00221602 max: 0.0273678
Max Ur Courant Number = 0.114896
deltaT = 0.4
Time = 118.4

PIMPLE: Iteration 1
MULES: Solving for alpha.solid
MULES: Solving for alpha.solid
smoothSolver:  Solving for alpha.solid, Initial residual = 0.000167084, Final residual = 2.48485e-10, No Iterations 3
alpha.solid volume fraction = 0.017  Min(alpha1) = 0  Max(alpha1) = 0.0702157
Constructing momentum equations
GAMG:  Solving for p_rgh, Initial residual = 0.000735992, Final residual = 7.09994e-09, No Iterations 41
PIMPLE: Iteration 2
MULES: Solving for alpha.solid
MULES: Solving for alpha.solid
smoothSolver:  Solving for alpha.solid, Initial residual = 0.000162923, Final residual = 2.38738e-10, No Iterations 3
alpha.solid volume fraction = 0.017  Min(alpha1) = 0  Max(alpha1) = 0.0702156
Constructing momentum equations
GAMG:  Solving for p_rgh, Initial residual = 0.000180519, Final residual = 8.62516e-09, No Iterations 30
PIMPLE: Iteration 3
MULES: Solving for alpha.solid
MULES: Solving for alpha.solid
smoothSolver:  Solving for alpha.solid, Initial residual = 0.000162574, Final residual = 2.31738e-10, No Iterations 3
alpha.solid volume fraction = 0.017  Min(alpha1) = 0  Max(alpha1) = 0.0702148
populationBalance particles: Iteration 1
DILUPBiCGStab:  Solving for f0.solid.particles, Initial residual = 0, Final residual = 0, No Iterations 0
DILUPBiCGStab:  Solving for f1.solid.particles, Initial residual = 0, Final residual = 0, No Iterations 0
DILUPBiCGStab:  Solving for f2.solid.particles, Initial residual = 0, Final residual = 0, No Iterations 0
DILUPBiCGStab:  Solving for f3.solid.particles, Initial residual = 0, Final residual = 0, No Iterations 0
DILUPBiCGStab:  Solving for f4.solid.particles, Initial residual = 2.33562e-17, Final residual = 2.33562e-17, No Iterations 0
DILUPBiCGStab:  Solving for f5.solid.particles, Initial residual = 0.0010022, Final residual = 4.40701e-09, No Iterations 1
DILUPBiCGStab:  Solving for f6.solid.particles, Initial residual = 0.0434543, Final residual = 6.06439e-07, No Iterations 1
solid Sauter mean diameter, min, max = 7.16e-05 7.16e-05 7.16e-05
solid sizeGroups-sum volume fraction, min, max = 1 1 1
particles sizeGroup phase fraction first, last = 0 0.017
Constructing momentum equations
GAMG:  Solving for p_rgh, Initial residual = 0.000120728, Final residual = 9.71536e-09, No Iterations 29
smoothSolver:  Solving for Theta.solid, Initial residual = 0.274951, Final residual = 7.56922e-10, No Iterations 1
ExecutionTime = 93.44 s


Courant Number mean: 0.00221958 max: 0.0273816
Max Ur Courant Number = 0.114822
deltaT = 0.4
Time = 118.8

PIMPLE: Iteration 1
MULES: Solving for alpha.solid
MULES: Solving for alpha.solid
smoothSolver:  Solving for alpha.solid, Initial residual = 0.000144417, Final residual = 1.93218e-10, No Iterations 3
alpha.solid volume fraction = 0.017  Min(alpha1) = 0  Max(alpha1) = 0.0702139
Constructing momentum equations
GAMG:  Solving for p_rgh, Initial residual = 0.000732966, Final residual = 9.92727e-09, No Iterations 43
PIMPLE: Iteration 2
MULES: Solving for alpha.solid
MULES: Solving for alpha.solid
smoothSolver:  Solving for alpha.solid, Initial residual = 0.000137041, Final residual = 1.25737e-10, No Iterations 3
alpha.solid volume fraction = 0.017  Min(alpha1) = 0  Max(alpha1) = 0.0702135
Constructing momentum equations
GAMG:  Solving for p_rgh, Initial residual = 0.000162773, Final residual = 9.10466e-09, No Iterations 25
PIMPLE: Iteration 3
MULES: Solving for alpha.solid
MULES: Solving for alpha.solid
smoothSolver:  Solving for alpha.solid, Initial residual = 0.000138256, Final residual = 1.35049e-10, No Iterations 3
alpha.solid volume fraction = 0.017  Min(alpha1) = 0  Max(alpha1) = 0.0702124
populationBalance particles: Iteration 1
DILUPBiCGStab:  Solving for f0.solid.particles, Initial residual = 0, Final residual = 0, No Iterations 0
DILUPBiCGStab:  Solving for f1.solid.particles, Initial residual = 0, Final residual = 0, No Iterations 0
DILUPBiCGStab:  Solving for f2.solid.particles, Initial residual = 0, Final residual = 0, No Iterations 0
DILUPBiCGStab:  Solving for f3.solid.particles, Initial residual = 0, Final residual = 0, No Iterations 0
DILUPBiCGStab:  Solving for f4.solid.particles, Initial residual = 2.3368e-17, Final residual = 2.3368e-17, No Iterations 0
DILUPBiCGStab:  Solving for f5.solid.particles, Initial residual = 0.000999992, Final residual = 4.33327e-09, No Iterations 1
DILUPBiCGStab:  Solving for f6.solid.particles, Initial residual = 0.0412139, Final residual = 6.4417e-07, No Iterations 1
solid Sauter mean diameter, min, max = 7.16e-05 7.16e-05 7.16e-05
solid sizeGroups-sum volume fraction, min, max = 1 1 1
particles sizeGroup phase fraction first, last = 0 0.017
Constructing momentum equations
GAMG:  Solving for p_rgh, Initial residual = 0.000102933, Final residual = 6.67096e-09, No Iterations 29
smoothSolver:  Solving for Theta.solid, Initial residual = 0.276701, Final residual = 1.47822e-09, No Iterations 1
ExecutionTime = 93.61 s


Courant Number mean: 0.00222788 max: 0.02795
Max Ur Courant Number = 0.114829
deltaT = 0.4
Time = 119.2

PIMPLE: Iteration 1
MULES: Solving for alpha.solid
MULES: Solving for alpha.solid
smoothSolver:  Solving for alpha.solid, Initial residual = 0.000120733, Final residual = 1.11335e-10, No Iterations 3
alpha.solid volume fraction = 0.017  Min(alpha1) = 0  Max(alpha1) = 0.0702104
Constructing momentum equations
GAMG:  Solving for p_rgh, Initial residual = 0.000724554, Final residual = 9.97493e-09, No Iterations 40
PIMPLE: Iteration 2
MULES: Solving for alpha.solid
MULES: Solving for alpha.solid
smoothSolver:  Solving for alpha.solid, Initial residual = 0.000114431, Final residual = 8.09099e-11, No Iterations 3
alpha.solid volume fraction = 0.017  Min(alpha1) = 0  Max(alpha1) = 0.07021
Constructing momentum equations
GAMG:  Solving for p_rgh, Initial residual = 0.000146396, Final residual = 9.3821e-09, No Iterations 23
PIMPLE: Iteration 3
MULES: Solving for alpha.solid
MULES: Solving for alpha.solid
smoothSolver:  Solving for alpha.solid, Initial residual = 0.000114414, Final residual = 8.14774e-11, No Iterations 3
alpha.solid volume fraction = 0.017  Min(alpha1) = 0  Max(alpha1) = 0.07021
populationBalance particles: Iteration 1
DILUPBiCGStab:  Solving for f0.solid.particles, Initial residual = 0, Final residual = 0, No Iterations 0
DILUPBiCGStab:  Solving for f1.solid.particles, Initial residual = 0, Final residual = 0, No Iterations 0
DILUPBiCGStab:  Solving for f2.solid.particles, Initial residual = 0, Final residual = 0, No Iterations 0
DILUPBiCGStab:  Solving for f3.solid.particles, Initial residual = 0, Final residual = 0, No Iterations 0
DILUPBiCGStab:  Solving for f4.solid.particles, Initial residual = 2.3386e-17, Final residual = 2.3386e-17, No Iterations 0
DILUPBiCGStab:  Solving for f5.solid.particles, Initial residual = 0.000998256, Final residual = 4.20849e-09, No Iterations 1
DILUPBiCGStab:  Solving for f6.solid.particles, Initial residual = 0.0418351, Final residual = 6.01184e-07, No Iterations 1
solid Sauter mean diameter, min, max = 7.16e-05 7.16e-05 7.16e-05
solid sizeGroups-sum volume fraction, min, max = 1 1 1
particles sizeGroup phase fraction first, last = 0 0.017
Constructing momentum equations
GAMG:  Solving for p_rgh, Initial residual = 8.66436e-05, Final residual = 8.73365e-09, No Iterations 28
smoothSolver:  Solving for Theta.solid, Initial residual = 0.278836, Final residual = 1.53753e-09, No Iterations 1
ExecutionTime = 93.8 s


Courant Number mean: 0.00224233 max: 0.0283013
Max Ur Courant Number = 0.114954
deltaT = 0.4
Time = 119.6

PIMPLE: Iteration 1
MULES: Solving for alpha.solid
MULES: Solving for alpha.solid
smoothSolver:  Solving for alpha.solid, Initial residual = 9.67332e-05, Final residual = 6.88074e-11, No Iterations 3
alpha.solid volume fraction = 0.017  Min(alpha1) = 0  Max(alpha1) = 0.0702077
Constructing momentum equations
GAMG:  Solving for p_rgh, Initial residual = 0.000716997, Final residual = 9.81954e-09, No Iterations 40
PIMPLE: Iteration 2
MULES: Solving for alpha.solid
MULES: Solving for alpha.solid
smoothSolver:  Solving for alpha.solid, Initial residual = 8.86793e-05, Final residual = 3.77153e-11, No Iterations 3
alpha.solid volume fraction = 0.017  Min(alpha1) = 0  Max(alpha1) = 0.0702077
Constructing momentum equations
GAMG:  Solving for p_rgh, Initial residual = 0.000132851, Final residual = 8.99418e-09, No Iterations 20
PIMPLE: Iteration 3
MULES: Solving for alpha.solid
MULES: Solving for alpha.solid
smoothSolver:  Solving for alpha.solid, Initial residual = 8.89659e-05, Final residual = 3.97171e-11, No Iterations 3
alpha.solid volume fraction = 0.017  Min(alpha1) = -4.74303e-317  Max(alpha1) = 0.0702077
populationBalance particles: Iteration 1
DILUPBiCGStab:  Solving for f0.solid.particles, Initial residual = 0, Final residual = 0, No Iterations 0
DILUPBiCGStab:  Solving for f1.solid.particles, Initial residual = 0, Final residual = 0, No Iterations 0
DILUPBiCGStab:  Solving for f2.solid.particles, Initial residual = 0, Final residual = 0, No Iterations 0
DILUPBiCGStab:  Solving for f3.solid.particles, Initial residual = 0, Final residual = 0, No Iterations 0
DILUPBiCGStab:  Solving for f4.solid.particles, Initial residual = 2.3402e-17, Final residual = 2.3402e-17, No Iterations 0
DILUPBiCGStab:  Solving for f5.solid.particles, Initial residual = 0.000997006, Final residual = 4.48527e-09, No Iterations 1
DILUPBiCGStab:  Solving for f6.solid.particles, Initial residual = 0.041765, Final residual = 5.67778e-07, No Iterations 1
solid Sauter mean diameter, min, max = 7.16e-05 7.16e-05 7.16e-05
solid sizeGroups-sum volume fraction, min, max = 1 1 1
particles sizeGroup phase fraction first, last = 0 0.017
Constructing momentum equations
GAMG:  Solving for p_rgh, Initial residual = 7.20569e-05, Final residual = 9.36371e-09, No Iterations 26
smoothSolver:  Solving for Theta.solid, Initial residual = 0.282861, Final residual = 1.40803e-09, No Iterations 1
ExecutionTime = 93.96 s


Courant Number mean: 0.00226276 max: 0.0284803
Max Ur Courant Number = 0.114856
deltaT = 0.4
Time = 120

PIMPLE: Iteration 1
MULES: Solving for alpha.solid
MULES: Solving for alpha.solid
smoothSolver:  Solving for alpha.solid, Initial residual = 7.343e-05, Final residual = 3.26329e-11, No Iterations 3
alpha.solid volume fraction = 0.017  Min(alpha1) = 0  Max(alpha1) = 0.0702054
Constructing momentum equations
GAMG:  Solving for p_rgh, Initial residual = 0.000704045, Final residual = 9.36296e-09, No Iterations 39
PIMPLE: Iteration 2
MULES: Solving for alpha.solid
MULES: Solving for alpha.solid
smoothSolver:  Solving for alpha.solid, Initial residual = 8.859e-05, Final residual = 2.12969e-11, No Iterations 3
alpha.solid volume fraction = 0.017  Min(alpha1) = 0  Max(alpha1) = 0.0702055
Constructing momentum equations
GAMG:  Solving for p_rgh, Initial residual = 0.000130408, Final residual = 8.20875e-09, No Iterations 19
PIMPLE: Iteration 3
MULES: Solving for alpha.solid
MULES: Solving for alpha.solid
smoothSolver:  Solving for alpha.solid, Initial residual = 8.91326e-05, Final residual = 2.19222e-11, No Iterations 3
alpha.solid volume fraction = 0.017  Min(alpha1) = -1.26481e-316  Max(alpha1) = 0.0702054
populationBalance particles: Iteration 1
DILUPBiCGStab:  Solving for f0.solid.particles, Initial residual = 0, Final residual = 0, No Iterations 0
DILUPBiCGStab:  Solving for f1.solid.particles, Initial residual = 0, Final residual = 0, No Iterations 0
DILUPBiCGStab:  Solving for f2.solid.particles, Initial residual = 0, Final residual = 0, No Iterations 0
DILUPBiCGStab:  Solving for f3.solid.particles, Initial residual = 0, Final residual = 0, No Iterations 0
DILUPBiCGStab:  Solving for f4.solid.particles, Initial residual = 2.3414e-17, Final residual = 2.3414e-17, No Iterations 0
DILUPBiCGStab:  Solving for f5.solid.particles, Initial residual = 0.000995658, Final residual = 4.39046e-09, No Iterations 1
DILUPBiCGStab:  Solving for f6.solid.particles, Initial residual = 0.0418688, Final residual = 6.50493e-07, No Iterations 1
solid Sauter mean diameter, min, max = 7.16e-05 7.16e-05 7.16e-05
solid sizeGroups-sum volume fraction, min, max = 1 1 1
particles sizeGroup phase fraction first, last = 0 0.017
Constructing momentum equations
GAMG:  Solving for p_rgh, Initial residual = 7.0115e-05, Final residual = 9.15298e-09, No Iterations 22
smoothSolver:  Solving for Theta.solid, Initial residual = 0.286467, Final residual = 1.69927e-09, No Iterations 1
ExecutionTime = 94.3 s


End

